version 3
run StandardEthernet-0-20240530-16:24:12-13076
attr configname StandardEthernet
attr datetime 20240530-16:24:12
attr datetimef 20240530-162412
attr experiment StandardEthernet
attr inifile omnetpp.ini
attr iterationvars "$brokenComponent=\"none\""
attr iterationvarsd brokenComponent=none
attr iterationvarsf brokenComponent=none-
attr measurement "$brokenComponent=\"none\""
attr network InVehicleNetworkShowcase
attr processid 13076
attr repetition 0
attr replication #0
attr resultdir results
attr runnumber 0
attr seedset 0
itervar brokenComponent "\"none\""
config image-path ../../../../images
config description "Using only standard Ethernet features"
config *.*Switch.typename EthernetSwitch
config *.steering.typename StandardHost
config *.*Wheel.typename StandardHost
config *.lidar.typename StandardHost
config *.*Camera.typename StandardHost
config *.obu.typename StandardHost
config *.rearDisplay.typename StandardHost
config *.engineActuator.typename StandardHost
config *.hud.typename StandardHost
config *.masterClock.typename ""
config network InVehicleNetworkShowcase
config description "Ethernet Time-Sensitive Networking (TSN) example with time synchronization, clock drift, time-aware shaping, Z3 SAT based gate scheduling, credit-based shaping, per-stream filtering and policying, stream redundancy, unicast and multicast streams, link failure protection, frame preemption, cut-through switching, etc."
config *.brokenComponent "\"none\""
config *.frontSwitch.ethg$o[3].channel.disabled "\"none\" == \"link\""
config *.frontLeftSwitch.ethg$o[0].channel.disabled "\"none\" == \"link\""
config *.frontLeftWheel.app[0].source.productionInterval "\"none\" == \"wheel\" ? 10us : 500us"
config *.frontLeftCamera.app[0].source.productionInterval "\"none\" == \"camera\" ? 10us : 125us"
config **.udp.defaultMulticastLoop false
config *.steering.numApps 1
config *.steering.app[0].typename UdpSourceApp
config *.steering.app[0].source.packetNameFormat "\"%M->engineActuator:CDT-%c\""
config *.steering.app[0].source.packetLength 175B
config *.steering.app[0].source.productionInterval 500us
config *.steering.app[0].io.destAddress "\"engineActuator\""
config *.steering.app[0].io.destPort 1000
config *.*Wheel.numApps 1
config *.*Wheel.app[0].typename UdpSourceApp
config *.*Wheel.app[0].source.packetNameFormat "\"%M->engineActuator:CDT-%c\""
config *.*Wheel.app[0].source.packetLength 175B
config *.*Wheel.app[0].source.productionInterval 500us
config *.*Wheel.app[0].io.destAddress "\"engineActuator\""
config *.frontLeftWheel.app[0].io.destPort 1001
config *.frontRightWheel.app[0].io.destPort 1002
config *.rearLeftWheel.app[0].io.destPort 1003
config *.rearRightWheel.app[0].io.destPort 1004
config *.lidar.numApps 1
config *.lidar.app[0].typename UdpSourceApp
config *.lidar.app[0].source.packetNameFormat "\"%M->hud:ClassA-%c\""
config *.lidar.app[0].source.packetLength 325B
config *.lidar.app[0].source.productionInterval 250us
config *.lidar.app[0].io.destAddress "\"hud\""
config *.lidar.app[0].io.destPort 1000
config *.*Camera.numApps 1
config *.*Camera.app[0].typename UdpSourceApp
config *.*Camera.app[0].source.packetNameFormat "\"%M->hud+obu:ClassA-%c\""
config *.*Camera.app[0].source.packetLength 325B
config *.*Camera.app[0].source.productionInterval 125us
config *.*Camera.app[0].io.destAddress "\"224.0.0.42\""
config *.frontLeftCamera.app[0].io.destPort 1001
config *.frontRightCamera.app[0].io.destPort 1002
config *.rearLeftCamera.app[0].io.destPort 1003
config *.rearRightCamera.app[0].io.destPort 1004
config *.obu.numApps 6
config *.obu.app[0].typename UdpSourceApp
config *.obu.app[0].display-name entertainment
config *.obu.app[0].source.packetNameFormat "\"%M->rearDisplay:ClassB-%c\""
config *.obu.app[0].source.packetLength 325B
config *.obu.app[0].source.productionInterval 250us
config *.obu.app[0].io.destAddress "\"rearDisplay\""
config *.obu.app[0].io.destPort 1000
config *.obu.app[1].typename UdpSourceApp
config *.obu.app[1].display-name navigation
config *.obu.app[1].source.packetNameFormat "\"%M->hud:BestEffort-%c\""
config *.obu.app[1].source.packetLength 325B
config *.obu.app[1].source.productionInterval 125us
config *.obu.app[1].io.destAddress "\"hud\""
config *.obu.app[1].io.destPort 1005
config *.obu.app[2].display-name "front left camera"
config *.obu.app[3].display-name "front right camera"
config *.obu.app[4].display-name "rear left camera"
config *.obu.app[5].display-name "rear right camera"
config *.obu.app[2..5].typename UdpSinkApp
config *.obu.app[2..5].io.multicastAddresses "[\"224.0.0.42\"]"
config *.obu.app[2].io.localPort 1001
config *.obu.app[3].io.localPort 1002
config *.obu.app[4].io.localPort 1003
config *.obu.app[5].io.localPort 1004
config *.rearDisplay.numApps 2
config *.rearDisplay.app[*].typename UdpSinkApp
config *.rearDisplay.app[0].display-name entertainment
config *.rearDisplay.app[1].display-name navigation
config *.rearDisplay.app[0].io.localPort 1000
config *.rearDisplay.app[1].io.localPort 1001
config *.engineActuator.numApps 5
config *.engineActuator.app[*].typename UdpSinkApp
config *.engineActuator.app[0].display-name steering
config *.engineActuator.app[1].display-name "front left wheel"
config *.engineActuator.app[2].display-name "front right wheel"
config *.engineActuator.app[3].display-name "rear left wheel"
config *.engineActuator.app[4].display-name "rear right wheel"
config *.engineActuator.app[0].io.localPort 1000
config *.engineActuator.app[1].io.localPort 1001
config *.engineActuator.app[2].io.localPort 1002
config *.engineActuator.app[3].io.localPort 1003
config *.engineActuator.app[4].io.localPort 1004
config *.hud.numApps 7
config *.hud.app[0].typename UdpSourceApp
config *.hud.app[0].display-name navigation
config *.hud.app[0].source.packetNameFormat "\"%M->rearDisplay:ClassB-%c\""
config *.hud.app[0].source.packetLength 325B
config *.hud.app[0].source.productionInterval 250us
config *.hud.app[0].io.destAddress "\"rearDisplay\""
config *.hud.app[0].io.destPort 1001
config *.hud.app[1].display-name lidar
config *.hud.app[2].display-name "front left camera"
config *.hud.app[3].display-name "front right camera"
config *.hud.app[4].display-name "rear left camera"
config *.hud.app[5].display-name "rear right camera"
config *.hud.app[6].display-name navigation
config *.hud.app[1..6].typename UdpSinkApp
config *.hud.app[2..5].io.multicastAddresses "[\"224.0.0.42\"]"
config *.hud.app[1].io.localPort 1000
config *.hud.app[2].io.localPort 1001
config *.hud.app[3].io.localPort 1002
config *.hud.app[4].io.localPort 1003
config *.hud.app[5].io.localPort 1004
config *.hud.app[6].io.localPort 1005
config *.frontSwitch.eth[0..4].bitrate 1Gbps
config *.frontLeftSwitch.eth[0..1].bitrate 1Gbps
config *.frontRightSwitch.eth[0..1].bitrate 1Gbps
config *.rearSwitch.eth[0..4].bitrate 1Gbps
config *.rearLeftSwitch.eth[0..1].bitrate 1Gbps
config *.rearRightSwitch.eth[0..1].bitrate 1Gbps
config *.hud.eth[0].bitrate 1Gbps
config *.obu.eth[0].bitrate 1Gbps
config *.*.eth[*].bitrate 100Mbps
config *.visualizer.typename IntegratedMultiCanvasVisualizer
config *.visualizer.dataLinkVisualizer[0].displayLinks true
config *.visualizer.dataLinkVisualizer[0].activityLevel "\"protocol\""
config *.visualizer.dataLinkVisualizer[0].packetFilter "\"*Camera*\""
config *.visualizer.dataLinkVisualizer[0].lineColor "\"blue4\""
config *.visualizer.dataLinkVisualizer[0].labelColor "\"blue4\""
config *.visualizer.numNetworkRouteVisualizers 4
config *.visualizer.networkRouteVisualizer[*].displayRoutes true
config *.visualizer.networkRouteVisualizer[0].packetFilter "\"*steering* or *Wheel*\""
config *.visualizer.networkRouteVisualizer[0].lineColor "\"red4\""
config *.visualizer.networkRouteVisualizer[1].packetFilter "\"*lidar*\""
config *.visualizer.networkRouteVisualizer[1].lineColor "\"blue4\""
config *.visualizer.networkRouteVisualizer[2].packetFilter "\"*rearDisplay*\""
config *.visualizer.networkRouteVisualizer[2].lineColor "\"green4\""
config *.visualizer.networkRouteVisualizer[3].packetFilter "\"*obu->hud*\""
config *.visualizer.networkRouteVisualizer[3].lineColor "\"gray\""

par InVehicleNetworkShowcase.SECC1COM.ethg$o[0].channel typename "\"inet.showcases.tsn.combiningfeatures.invehicle.InVehicleNetworkShowcase.Eth100M\""
par InVehicleNetworkShowcase.SECC1COM.ethg$o[0].channel disabled false
attr mutable ""
par InVehicleNetworkShowcase.SECC1COM.ethg$o[0].channel delay 1e-07s
attr mutable ""
attr unit s
par InVehicleNetworkShowcase.SECC1COM.ethg$o[0].channel datarate 1e+08bps
attr mutable ""
attr unit bps
par InVehicleNetworkShowcase.SECC1COM.ethg$o[0].channel ber 0
attr mutable ""
par InVehicleNetworkShowcase.SECC1COM.ethg$o[0].channel per 0
attr mutable ""
par InVehicleNetworkShowcase.S1.ethg$o[0].channel typename "\"inet.showcases.tsn.combiningfeatures.invehicle.InVehicleNetworkShowcase.Eth100M\""
par InVehicleNetworkShowcase.S1.ethg$o[0].channel disabled false
attr mutable ""
par InVehicleNetworkShowcase.S1.ethg$o[0].channel delay 1e-07s
attr mutable ""
attr unit s
par InVehicleNetworkShowcase.S1.ethg$o[0].channel datarate 1e+08bps
attr mutable ""
attr unit bps
par InVehicleNetworkShowcase.S1.ethg$o[0].channel ber 0
attr mutable ""
par InVehicleNetworkShowcase.S1.ethg$o[0].channel per 0
attr mutable ""
par InVehicleNetworkShowcase.SECC1MON.ethg$o[0].channel typename "\"inet.showcases.tsn.combiningfeatures.invehicle.InVehicleNetworkShowcase.Eth100M\""
par InVehicleNetworkShowcase.SECC1MON.ethg$o[0].channel disabled false
attr mutable ""
par InVehicleNetworkShowcase.SECC1MON.ethg$o[0].channel delay 1e-07s
attr mutable ""
attr unit s
par InVehicleNetworkShowcase.SECC1MON.ethg$o[0].channel datarate 1e+08bps
attr mutable ""
attr unit bps
par InVehicleNetworkShowcase.SECC1MON.ethg$o[0].channel ber 0
attr mutable ""
par InVehicleNetworkShowcase.SECC1MON.ethg$o[0].channel per 0
attr mutable ""
par InVehicleNetworkShowcase.S1.ethg$o[1].channel typename "\"inet.showcases.tsn.combiningfeatures.invehicle.InVehicleNetworkShowcase.Eth100M\""
par InVehicleNetworkShowcase.S1.ethg$o[1].channel disabled false
attr mutable ""
par InVehicleNetworkShowcase.S1.ethg$o[1].channel delay 1e-07s
attr mutable ""
attr unit s
par InVehicleNetworkShowcase.S1.ethg$o[1].channel datarate 1e+08bps
attr mutable ""
attr unit bps
par InVehicleNetworkShowcase.S1.ethg$o[1].channel ber 0
attr mutable ""
par InVehicleNetworkShowcase.S1.ethg$o[1].channel per 0
attr mutable ""
par InVehicleNetworkShowcase.S1.ethg$o[2].channel typename "\"inet.showcases.tsn.combiningfeatures.invehicle.InVehicleNetworkShowcase.Eth100M\""
par InVehicleNetworkShowcase.S1.ethg$o[2].channel disabled false
attr mutable ""
par InVehicleNetworkShowcase.S1.ethg$o[2].channel delay 1e-07s
attr mutable ""
attr unit s
par InVehicleNetworkShowcase.S1.ethg$o[2].channel datarate 1e+08bps
attr mutable ""
attr unit bps
par InVehicleNetworkShowcase.S1.ethg$o[2].channel ber 0
attr mutable ""
par InVehicleNetworkShowcase.S1.ethg$o[2].channel per 0
attr mutable ""
par InVehicleNetworkShowcase.S11.ethg$o[0].channel typename "\"inet.showcases.tsn.combiningfeatures.invehicle.InVehicleNetworkShowcase.Eth100M\""
par InVehicleNetworkShowcase.S11.ethg$o[0].channel disabled false
attr mutable ""
par InVehicleNetworkShowcase.S11.ethg$o[0].channel delay 1e-07s
attr mutable ""
attr unit s
par InVehicleNetworkShowcase.S11.ethg$o[0].channel datarate 1e+08bps
attr mutable ""
attr unit bps
par InVehicleNetworkShowcase.S11.ethg$o[0].channel ber 0
attr mutable ""
par InVehicleNetworkShowcase.S11.ethg$o[0].channel per 0
attr mutable ""
par InVehicleNetworkShowcase.SECC2COM.ethg$o[0].channel typename "\"inet.showcases.tsn.combiningfeatures.invehicle.InVehicleNetworkShowcase.Eth100M\""
par InVehicleNetworkShowcase.SECC2COM.ethg$o[0].channel disabled false
attr mutable ""
par InVehicleNetworkShowcase.SECC2COM.ethg$o[0].channel delay 1e-07s
attr mutable ""
attr unit s
par InVehicleNetworkShowcase.SECC2COM.ethg$o[0].channel datarate 1e+08bps
attr mutable ""
attr unit bps
par InVehicleNetworkShowcase.SECC2COM.ethg$o[0].channel ber 0
attr mutable ""
par InVehicleNetworkShowcase.SECC2COM.ethg$o[0].channel per 0
attr mutable ""
par InVehicleNetworkShowcase.S11.ethg$o[1].channel typename "\"inet.showcases.tsn.combiningfeatures.invehicle.InVehicleNetworkShowcase.Eth100M\""
par InVehicleNetworkShowcase.S11.ethg$o[1].channel disabled false
attr mutable ""
par InVehicleNetworkShowcase.S11.ethg$o[1].channel delay 1e-07s
attr mutable ""
attr unit s
par InVehicleNetworkShowcase.S11.ethg$o[1].channel datarate 1e+08bps
attr mutable ""
attr unit bps
par InVehicleNetworkShowcase.S11.ethg$o[1].channel ber 0
attr mutable ""
par InVehicleNetworkShowcase.S11.ethg$o[1].channel per 0
attr mutable ""
par InVehicleNetworkShowcase.SECC2MON.ethg$o[0].channel typename "\"inet.showcases.tsn.combiningfeatures.invehicle.InVehicleNetworkShowcase.Eth100M\""
par InVehicleNetworkShowcase.SECC2MON.ethg$o[0].channel disabled false
attr mutable ""
par InVehicleNetworkShowcase.SECC2MON.ethg$o[0].channel delay 1e-07s
attr mutable ""
attr unit s
par InVehicleNetworkShowcase.SECC2MON.ethg$o[0].channel datarate 1e+08bps
attr mutable ""
attr unit bps
par InVehicleNetworkShowcase.SECC2MON.ethg$o[0].channel ber 0
attr mutable ""
par InVehicleNetworkShowcase.SECC2MON.ethg$o[0].channel per 0
attr mutable ""
par InVehicleNetworkShowcase.S11.ethg$o[2].channel typename "\"inet.showcases.tsn.combiningfeatures.invehicle.InVehicleNetworkShowcase.Eth100M\""
par InVehicleNetworkShowcase.S11.ethg$o[2].channel disabled false
attr mutable ""
par InVehicleNetworkShowcase.S11.ethg$o[2].channel delay 1e-07s
attr mutable ""
attr unit s
par InVehicleNetworkShowcase.S11.ethg$o[2].channel datarate 1e+08bps
attr mutable ""
attr unit bps
par InVehicleNetworkShowcase.S11.ethg$o[2].channel ber 0
attr mutable ""
par InVehicleNetworkShowcase.S11.ethg$o[2].channel per 0
attr mutable ""
par InVehicleNetworkShowcase.visualizer.sceneVisualizer[0] typename "\"inet.visualizer.canvas.scene.SceneCanvasVisualizer\""
par InVehicleNetworkShowcase.visualizer.sceneVisualizer[0] visualizationTargetModule "\"^.^\""
par InVehicleNetworkShowcase.visualizer.sceneVisualizer[0] visualizationSubjectModule "\"^.^\""
par InVehicleNetworkShowcase.visualizer.sceneVisualizer[0] tags "\"\""
par InVehicleNetworkShowcase.visualizer.sceneVisualizer[0] physicalEnvironmentModule "\"physicalEnvironment\""
par InVehicleNetworkShowcase.visualizer.sceneVisualizer[0] networkNodeVisualizerModule "\"InVehicleNetworkShowcase.visualizer.networkNodeVisualizer[0]\""
par InVehicleNetworkShowcase.visualizer.sceneVisualizer[0] axisLength "nan m"
attr mutable ""
attr unit m
par InVehicleNetworkShowcase.visualizer.sceneVisualizer[0] animationSpeed 0
par InVehicleNetworkShowcase.visualizer.sceneVisualizer[0] sceneMinX "nan m"
attr unit m
par InVehicleNetworkShowcase.visualizer.sceneVisualizer[0] sceneMinY "nan m"
attr unit m
par InVehicleNetworkShowcase.visualizer.sceneVisualizer[0] sceneMinZ "nan m"
attr unit m
par InVehicleNetworkShowcase.visualizer.sceneVisualizer[0] sceneMaxX "nan m"
attr unit m
par InVehicleNetworkShowcase.visualizer.sceneVisualizer[0] sceneMaxY "nan m"
attr unit m
par InVehicleNetworkShowcase.visualizer.sceneVisualizer[0] sceneMaxZ "nan m"
attr unit m
par InVehicleNetworkShowcase.visualizer.sceneVisualizer[0] zIndex 0
par InVehicleNetworkShowcase.visualizer.sceneVisualizer[0] viewAngle "\"x right y down z out\""
attr mutable ""
par InVehicleNetworkShowcase.visualizer.sceneVisualizer[0] viewScale "\"1 1\""
attr mutable ""
par InVehicleNetworkShowcase.visualizer.sceneVisualizer[0] viewTranslation "\"0 0\""
attr mutable ""
par InVehicleNetworkShowcase.visualizer.sceneVisualizer[0] descriptionFigure "\"\""
par InVehicleNetworkShowcase.visualizer.physicalEnvironmentVisualizer[0] typename "\"inet.visualizer.canvas.environment.PhysicalEnvironmentCanvasVisualizer\""
par InVehicleNetworkShowcase.visualizer.physicalEnvironmentVisualizer[0] visualizationTargetModule "\"^.^\""
par InVehicleNetworkShowcase.visualizer.physicalEnvironmentVisualizer[0] visualizationSubjectModule "\"^.^\""
par InVehicleNetworkShowcase.visualizer.physicalEnvironmentVisualizer[0] tags "\"\""
par InVehicleNetworkShowcase.visualizer.physicalEnvironmentVisualizer[0] physicalEnvironmentModule "\"physicalEnvironment\""
par InVehicleNetworkShowcase.visualizer.physicalEnvironmentVisualizer[0] displayObjects true
par InVehicleNetworkShowcase.visualizer.physicalEnvironmentVisualizer[0] zIndex 0
par InVehicleNetworkShowcase.visualizer.networkNodeVisualizer[0] typename "\"inet.visualizer.canvas.scene.NetworkNodeCanvasVisualizer\""
par InVehicleNetworkShowcase.visualizer.networkNodeVisualizer[0] visualizationTargetModule "\"^.^\""
par InVehicleNetworkShowcase.visualizer.networkNodeVisualizer[0] visualizationSubjectModule "\"^.^\""
par InVehicleNetworkShowcase.visualizer.networkNodeVisualizer[0] tags "\"\""
par InVehicleNetworkShowcase.visualizer.networkNodeVisualizer[0] nodeFilter "\"*\""
attr mutable ""
par InVehicleNetworkShowcase.visualizer.networkNodeVisualizer[0] annotationSpacing 4
par InVehicleNetworkShowcase.visualizer.networkNodeVisualizer[0] placementPenalty 10
par InVehicleNetworkShowcase.visualizer.networkNodeVisualizer[0] zIndex 0
par InVehicleNetworkShowcase.visualizer.networkConnectionVisualizer[0] typename "\"inet.visualizer.canvas.scene.NetworkConnectionCanvasVisualizer\""
par InVehicleNetworkShowcase.visualizer.networkConnectionVisualizer[0] visualizationTargetModule "\"^.^\""
par InVehicleNetworkShowcase.visualizer.networkConnectionVisualizer[0] visualizationSubjectModule "\"^.^\""
par InVehicleNetworkShowcase.visualizer.networkConnectionVisualizer[0] tags "\"\""
par InVehicleNetworkShowcase.visualizer.networkConnectionVisualizer[0] displayNetworkConnections true
par InVehicleNetworkShowcase.visualizer.networkConnectionVisualizer[0] nodeFilter "\"\""
attr mutable ""
par InVehicleNetworkShowcase.visualizer.networkConnectionVisualizer[0] lineColor "\"black\""
par InVehicleNetworkShowcase.visualizer.networkConnectionVisualizer[0] lineStyle "\"solid\""
par InVehicleNetworkShowcase.visualizer.networkConnectionVisualizer[0] lineWidth 1
par InVehicleNetworkShowcase.visualizer.networkConnectionVisualizer[0] zIndex 0
par InVehicleNetworkShowcase.visualizer.mobilityVisualizer[0] typename "\"inet.visualizer.canvas.mobility.MobilityCanvasVisualizer\""
par InVehicleNetworkShowcase.visualizer.mobilityVisualizer[0] visualizationTargetModule "\"^.^\""
par InVehicleNetworkShowcase.visualizer.mobilityVisualizer[0] visualizationSubjectModule "\"^.^\""
par InVehicleNetworkShowcase.visualizer.mobilityVisualizer[0] tags "\"\""
par InVehicleNetworkShowcase.visualizer.mobilityVisualizer[0] networkNodeVisualizerModule "\"InVehicleNetworkShowcase.visualizer.networkNodeVisualizer[0]\""
par InVehicleNetworkShowcase.visualizer.mobilityVisualizer[0] displayMobility true
par InVehicleNetworkShowcase.visualizer.mobilityVisualizer[0] animationSpeed 0
par InVehicleNetworkShowcase.visualizer.mobilityVisualizer[0] moduleFilter "\"**.mobility\""
attr mutable ""
par InVehicleNetworkShowcase.visualizer.mobilityVisualizer[0] displayPositions false
par InVehicleNetworkShowcase.visualizer.mobilityVisualizer[0] positionCircleRadius 4
par InVehicleNetworkShowcase.visualizer.mobilityVisualizer[0] positionCircleLineWidth 1
par InVehicleNetworkShowcase.visualizer.mobilityVisualizer[0] positionCircleLineColor "\"dark\""
attr enum light,dark
par InVehicleNetworkShowcase.visualizer.mobilityVisualizer[0] positionCircleFillColor "\"dark\""
attr enum light,dark
par InVehicleNetworkShowcase.visualizer.mobilityVisualizer[0] displayOrientations false
par InVehicleNetworkShowcase.visualizer.mobilityVisualizer[0] orientationPieRadius 32
par InVehicleNetworkShowcase.visualizer.mobilityVisualizer[0] orientationPieSize 0.2
par InVehicleNetworkShowcase.visualizer.mobilityVisualizer[0] orientationPieOpacity 0.25
par InVehicleNetworkShowcase.visualizer.mobilityVisualizer[0] orientationLineColor "\"black\""
par InVehicleNetworkShowcase.visualizer.mobilityVisualizer[0] orientationLineStyle "\"solid\""
par InVehicleNetworkShowcase.visualizer.mobilityVisualizer[0] orientationLineWidth 1
par InVehicleNetworkShowcase.visualizer.mobilityVisualizer[0] orientationFillColor "\"blue\""
par InVehicleNetworkShowcase.visualizer.mobilityVisualizer[0] displayVelocities false
par InVehicleNetworkShowcase.visualizer.mobilityVisualizer[0] velocityArrowScale 1
par InVehicleNetworkShowcase.visualizer.mobilityVisualizer[0] velocityLineColor "\"black\""
par InVehicleNetworkShowcase.visualizer.mobilityVisualizer[0] velocityLineStyle "\"solid\""
par InVehicleNetworkShowcase.visualizer.mobilityVisualizer[0] velocityLineWidth 1
par InVehicleNetworkShowcase.visualizer.mobilityVisualizer[0] displayMovementTrails false
par InVehicleNetworkShowcase.visualizer.mobilityVisualizer[0] movementTrailLineColor "\"dark\""
attr enum light,dark
par InVehicleNetworkShowcase.visualizer.mobilityVisualizer[0] movementTrailLineStyle "\"solid\""
par InVehicleNetworkShowcase.visualizer.mobilityVisualizer[0] movementTrailLineWidth 1
par InVehicleNetworkShowcase.visualizer.mobilityVisualizer[0] trailLength 100
par InVehicleNetworkShowcase.visualizer.mobilityVisualizer[0] zIndex 0
par InVehicleNetworkShowcase.visualizer.statisticVisualizer[0] typename "\"inet.visualizer.canvas.common.StatisticCanvasVisualizer\""
par InVehicleNetworkShowcase.visualizer.statisticVisualizer[0] visualizationTargetModule "\"^.^\""
par InVehicleNetworkShowcase.visualizer.statisticVisualizer[0] visualizationSubjectModule "\"^.^\""
par InVehicleNetworkShowcase.visualizer.statisticVisualizer[0] tags "\"\""
par InVehicleNetworkShowcase.visualizer.statisticVisualizer[0] networkNodeVisualizerModule "\"InVehicleNetworkShowcase.visualizer.networkNodeVisualizer[0]\""
par InVehicleNetworkShowcase.visualizer.statisticVisualizer[0] displayStatistics true
par InVehicleNetworkShowcase.visualizer.statisticVisualizer[0] signalName "\"\""
par InVehicleNetworkShowcase.visualizer.statisticVisualizer[0] statisticName "\"\""
par InVehicleNetworkShowcase.visualizer.statisticVisualizer[0] statisticUnit "\"\""
par InVehicleNetworkShowcase.visualizer.statisticVisualizer[0] statisticExpression "\"\""
par InVehicleNetworkShowcase.visualizer.statisticVisualizer[0] sourceFilter "\"**\""
attr mutable ""
par InVehicleNetworkShowcase.visualizer.statisticVisualizer[0] format "\"%n: %v %u\""
attr mutable ""
par InVehicleNetworkShowcase.visualizer.statisticVisualizer[0] unit "\"\""
par InVehicleNetworkShowcase.visualizer.statisticVisualizer[0] font "\"<default>\""
par InVehicleNetworkShowcase.visualizer.statisticVisualizer[0] textColor "\"black\""
par InVehicleNetworkShowcase.visualizer.statisticVisualizer[0] backgroundColor "\"white\""
par InVehicleNetworkShowcase.visualizer.statisticVisualizer[0] opacity 1
par InVehicleNetworkShowcase.visualizer.statisticVisualizer[0] placementHint "\"top\""
par InVehicleNetworkShowcase.visualizer.statisticVisualizer[0] placementPriority 0
par InVehicleNetworkShowcase.visualizer.statisticVisualizer[0] zIndex 10
par InVehicleNetworkShowcase.visualizer.statisticVisualizer[0] propertyName "\"\""
par InVehicleNetworkShowcase.visualizer.statisticVisualizer[0] propertyIndex "\"\""
par InVehicleNetworkShowcase.visualizer.infoVisualizer[0] typename "\"inet.visualizer.canvas.common.InfoCanvasVisualizer\""
par InVehicleNetworkShowcase.visualizer.infoVisualizer[0] visualizationTargetModule "\"^.^\""
par InVehicleNetworkShowcase.visualizer.infoVisualizer[0] visualizationSubjectModule "\"^.^\""
par InVehicleNetworkShowcase.visualizer.infoVisualizer[0] tags "\"\""
par InVehicleNetworkShowcase.visualizer.infoVisualizer[0] networkNodeVisualizerModule "\"InVehicleNetworkShowcase.visualizer.networkNodeVisualizer[0]\""
par InVehicleNetworkShowcase.visualizer.infoVisualizer[0] displayInfos true
par InVehicleNetworkShowcase.visualizer.infoVisualizer[0] modules "\"\""
attr mutable ""
par InVehicleNetworkShowcase.visualizer.infoVisualizer[0] format "\"%t\""
attr mutable ""
par InVehicleNetworkShowcase.visualizer.infoVisualizer[0] font "\"<default>\""
par InVehicleNetworkShowcase.visualizer.infoVisualizer[0] textColor "\"black\""
par InVehicleNetworkShowcase.visualizer.infoVisualizer[0] backgroundColor "\"white\""
par InVehicleNetworkShowcase.visualizer.infoVisualizer[0] opacity 1
par InVehicleNetworkShowcase.visualizer.infoVisualizer[0] placementHint "\"top\""
par InVehicleNetworkShowcase.visualizer.infoVisualizer[0] placementPriority 0
par InVehicleNetworkShowcase.visualizer.infoVisualizer[0] zIndex 10
par InVehicleNetworkShowcase.visualizer.energyStorageVisualizer[0] typename "\"inet.visualizer.canvas.power.EnergyStorageCanvasVisualizer\""
par InVehicleNetworkShowcase.visualizer.energyStorageVisualizer[0] visualizationTargetModule "\"^.^\""
par InVehicleNetworkShowcase.visualizer.energyStorageVisualizer[0] visualizationSubjectModule "\"^.^\""
par InVehicleNetworkShowcase.visualizer.energyStorageVisualizer[0] tags "\"\""
par InVehicleNetworkShowcase.visualizer.energyStorageVisualizer[0] networkNodeVisualizerModule "\"InVehicleNetworkShowcase.visualizer.networkNodeVisualizer[0]\""
par InVehicleNetworkShowcase.visualizer.energyStorageVisualizer[0] displayEnergyStorages false
par InVehicleNetworkShowcase.visualizer.energyStorageVisualizer[0] energyStorageFilter "\"**\""
par InVehicleNetworkShowcase.visualizer.energyStorageVisualizer[0] color "\"green\""
par InVehicleNetworkShowcase.visualizer.energyStorageVisualizer[0] width 8
par InVehicleNetworkShowcase.visualizer.energyStorageVisualizer[0] height 24
par InVehicleNetworkShowcase.visualizer.energyStorageVisualizer[0] spacing 2
par InVehicleNetworkShowcase.visualizer.energyStorageVisualizer[0] placementHint "\"right\""
par InVehicleNetworkShowcase.visualizer.energyStorageVisualizer[0] placementPriority 0
par InVehicleNetworkShowcase.visualizer.energyStorageVisualizer[0] zIndex 10
par InVehicleNetworkShowcase.visualizer.mediumVisualizer[0] typename "\"inet.visualizer.canvas.physicallayer.MediumCanvasVisualizer\""
par InVehicleNetworkShowcase.visualizer.mediumVisualizer[0] visualizationTargetModule "\"^.^\""
par InVehicleNetworkShowcase.visualizer.mediumVisualizer[0] visualizationSubjectModule "\"^.^\""
par InVehicleNetworkShowcase.visualizer.mediumVisualizer[0] tags "\"\""
par InVehicleNetworkShowcase.visualizer.mediumVisualizer[0] mediumModule "\"radioMedium\""
par InVehicleNetworkShowcase.visualizer.mediumVisualizer[0] networkNodeVisualizerModule "\"InVehicleNetworkShowcase.visualizer.networkNodeVisualizer[0]\""
par InVehicleNetworkShowcase.visualizer.mediumVisualizer[0] nodeFilter "\"*\""
attr mutable ""
par InVehicleNetworkShowcase.visualizer.mediumVisualizer[0] interfaceFilter "\"*\""
attr mutable ""
par InVehicleNetworkShowcase.visualizer.mediumVisualizer[0] packetFilter "(omnetpp::cValueHolder)holder: \"*\""
attr mutable ""
par InVehicleNetworkShowcase.visualizer.mediumVisualizer[0] displaySignals false
par InVehicleNetworkShowcase.visualizer.mediumVisualizer[0] signalColor "\"dark\""
attr enum light,dark
par InVehicleNetworkShowcase.visualizer.mediumVisualizer[0] signalPropagationAnimationSpeed "nan "
attr mutable ""
par InVehicleNetworkShowcase.visualizer.mediumVisualizer[0] signalPropagationAnimationTime 1s
attr unit s
par InVehicleNetworkShowcase.visualizer.mediumVisualizer[0] signalPropagationAdditionalTime 0s
attr unit s
par InVehicleNetworkShowcase.visualizer.mediumVisualizer[0] signalTransmissionAnimationSpeed "nan "
attr mutable ""
par InVehicleNetworkShowcase.visualizer.mediumVisualizer[0] signalTransmissionAnimationTime 1s
attr unit s
par InVehicleNetworkShowcase.visualizer.mediumVisualizer[0] signalAnimationSpeedChangeTimeMode "\"realTime\""
attr enum realTime,animationTime,simulationTime
par InVehicleNetworkShowcase.visualizer.mediumVisualizer[0] signalAnimationSpeedChangeTime 1s
attr unit s
par InVehicleNetworkShowcase.visualizer.mediumVisualizer[0] displaySignalDepartures false
par InVehicleNetworkShowcase.visualizer.mediumVisualizer[0] signalDepartureImage "\"misc/signal_departure.png\""
par InVehicleNetworkShowcase.visualizer.mediumVisualizer[0] signalDeparturePlacementHint "\"topCenter\""
par InVehicleNetworkShowcase.visualizer.mediumVisualizer[0] signalDeparturePlacementPriority 1
par InVehicleNetworkShowcase.visualizer.mediumVisualizer[0] displaySignalArrivals false
par InVehicleNetworkShowcase.visualizer.mediumVisualizer[0] signalArrivalImage "\"misc/signal_arrival.png\""
par InVehicleNetworkShowcase.visualizer.mediumVisualizer[0] signalArrivalPlacementHint "\"topCenter\""
par InVehicleNetworkShowcase.visualizer.mediumVisualizer[0] signalArrivalPlacementPriority -1
par InVehicleNetworkShowcase.visualizer.mediumVisualizer[0] displayCommunicationRanges false
par InVehicleNetworkShowcase.visualizer.mediumVisualizer[0] communicationRangeLineColor "\"blue\""
par InVehicleNetworkShowcase.visualizer.mediumVisualizer[0] communicationRangeLineStyle "\"solid\""
par InVehicleNetworkShowcase.visualizer.mediumVisualizer[0] communicationRangeLineWidth 1
par InVehicleNetworkShowcase.visualizer.mediumVisualizer[0] displayInterferenceRanges false
par InVehicleNetworkShowcase.visualizer.mediumVisualizer[0] interferenceRangeLineColor "\"gray\""
par InVehicleNetworkShowcase.visualizer.mediumVisualizer[0] interferenceRangeLineStyle "\"solid\""
par InVehicleNetworkShowcase.visualizer.mediumVisualizer[0] interferenceRangeLineWidth 1
par InVehicleNetworkShowcase.visualizer.mediumVisualizer[0] autoPowerAxis true
par InVehicleNetworkShowcase.visualizer.mediumVisualizer[0] signalMinPower "inf dBmW"
attr unit dBmW
par InVehicleNetworkShowcase.visualizer.mediumVisualizer[0] signalMaxPower 0dBmW
attr unit dBmW
par InVehicleNetworkShowcase.visualizer.mediumVisualizer[0] signalMinPowerDensity "inf dBmWpMHz"
attr unit dBmWpMHz
par InVehicleNetworkShowcase.visualizer.mediumVisualizer[0] signalMaxPowerDensity "-inf dBmWpMHz"
attr unit dBmWpMHz
par InVehicleNetworkShowcase.visualizer.mediumVisualizer[0] autoTimeAxis true
par InVehicleNetworkShowcase.visualizer.mediumVisualizer[0] signalMinTime 0s
attr unit s
par InVehicleNetworkShowcase.visualizer.mediumVisualizer[0] signalMaxTime 0s
attr unit s
par InVehicleNetworkShowcase.visualizer.mediumVisualizer[0] autoFrequencyAxis true
par InVehicleNetworkShowcase.visualizer.mediumVisualizer[0] signalMinFrequency "inf Hz"
attr unit Hz
par InVehicleNetworkShowcase.visualizer.mediumVisualizer[0] signalMaxFrequency "-inf Hz"
attr unit Hz
par InVehicleNetworkShowcase.visualizer.mediumVisualizer[0] displayMainPowerDensityMap false
par InVehicleNetworkShowcase.visualizer.mediumVisualizer[0] mainPowerDensityMapPixmapDensity 1
par InVehicleNetworkShowcase.visualizer.mediumVisualizer[0] mainPowerDensityMapMinX 0
par InVehicleNetworkShowcase.visualizer.mediumVisualizer[0] mainPowerDensityMapMaxX "nan "
par InVehicleNetworkShowcase.visualizer.mediumVisualizer[0] mainPowerDensityMapMinY 0
par InVehicleNetworkShowcase.visualizer.mediumVisualizer[0] mainPowerDensityMapMaxY "nan "
par InVehicleNetworkShowcase.visualizer.mediumVisualizer[0] mainPowerDensityMapZ 0
par InVehicleNetworkShowcase.visualizer.mediumVisualizer[0] mainPowerDensityMapFigureXTickCount 3
par InVehicleNetworkShowcase.visualizer.mediumVisualizer[0] mainPowerDensityMapFigureYTickCount 3
par InVehicleNetworkShowcase.visualizer.mediumVisualizer[0] displayPowerDensityMaps false
par InVehicleNetworkShowcase.visualizer.mediumVisualizer[0] powerDensityMapMode "\"auto\""
attr enum total,signal,auto
par InVehicleNetworkShowcase.visualizer.mediumVisualizer[0] powerDensityMapPixelMode "\"mean\""
attr enum sample,partition,mean
par InVehicleNetworkShowcase.visualizer.mediumVisualizer[0] powerDensityMapApproximationSize 10
par InVehicleNetworkShowcase.visualizer.mediumVisualizer[0] powerDensityMapCenterFrequency "nan Hz"
attr mutable ""
attr unit Hz
par InVehicleNetworkShowcase.visualizer.mediumVisualizer[0] powerDensityMapBandwidth 0Hz
attr mutable ""
attr unit Hz
par InVehicleNetworkShowcase.visualizer.mediumVisualizer[0] powerDensityMapFigureWidth 200
par InVehicleNetworkShowcase.visualizer.mediumVisualizer[0] powerDensityMapFigureHeight 120
par InVehicleNetworkShowcase.visualizer.mediumVisualizer[0] powerDensityMapPixmapWidth 200
par InVehicleNetworkShowcase.visualizer.mediumVisualizer[0] powerDensityMapPixmapHeight 120
par InVehicleNetworkShowcase.visualizer.mediumVisualizer[0] powerDensityMapZ 0
par InVehicleNetworkShowcase.visualizer.mediumVisualizer[0] powerDensityMapFigureXTickCount 3
par InVehicleNetworkShowcase.visualizer.mediumVisualizer[0] powerDensityMapFigureYTickCount 3
par InVehicleNetworkShowcase.visualizer.mediumVisualizer[0] displaySpectrums false
par InVehicleNetworkShowcase.visualizer.mediumVisualizer[0] spectrumMode "\"auto\""
attr enum total,signal,auto
par InVehicleNetworkShowcase.visualizer.mediumVisualizer[0] spectrumFigureWidth 200
par InVehicleNetworkShowcase.visualizer.mediumVisualizer[0] spectrumFigureHeight 120
par InVehicleNetworkShowcase.visualizer.mediumVisualizer[0] spectrumFigureXTickCount 3
par InVehicleNetworkShowcase.visualizer.mediumVisualizer[0] spectrumFigureYTickCount 5
par InVehicleNetworkShowcase.visualizer.mediumVisualizer[0] spectrumFigureInterpolationSize 5
par InVehicleNetworkShowcase.visualizer.mediumVisualizer[0] spectrumPlacementHint "\"bottomCenter\""
par InVehicleNetworkShowcase.visualizer.mediumVisualizer[0] spectrumPlacementPriority -1
par InVehicleNetworkShowcase.visualizer.mediumVisualizer[0] displaySpectrograms false
par InVehicleNetworkShowcase.visualizer.mediumVisualizer[0] spectrogramMode "\"auto\""
attr enum total,signal,auto
par InVehicleNetworkShowcase.visualizer.mediumVisualizer[0] spectrogramPixelMode "\"mean\""
attr enum sample,partition,mean
par InVehicleNetworkShowcase.visualizer.mediumVisualizer[0] spectrogramFigureWidth 200
par InVehicleNetworkShowcase.visualizer.mediumVisualizer[0] spectrogramFigureHeight 120
par InVehicleNetworkShowcase.visualizer.mediumVisualizer[0] spectrogramPixmapWidth 200
par InVehicleNetworkShowcase.visualizer.mediumVisualizer[0] spectrogramPixmapHeight 120
par InVehicleNetworkShowcase.visualizer.mediumVisualizer[0] spectrogramFigureXTickCount 3
par InVehicleNetworkShowcase.visualizer.mediumVisualizer[0] spectrogramFigureYTickCount 5
par InVehicleNetworkShowcase.visualizer.mediumVisualizer[0] spectrogramPlacementHint "\"bottomCenter\""
par InVehicleNetworkShowcase.visualizer.mediumVisualizer[0] spectrogramPlacementPriority -1
par InVehicleNetworkShowcase.visualizer.mediumVisualizer[0] zIndex 0
par InVehicleNetworkShowcase.visualizer.mediumVisualizer[0] signalShape "\"ring\""
attr enum ring,sphere
par InVehicleNetworkShowcase.visualizer.mediumVisualizer[0] signalOpacity 0.5
par InVehicleNetworkShowcase.visualizer.mediumVisualizer[0] signalRingCount 20
par InVehicleNetworkShowcase.visualizer.mediumVisualizer[0] signalRingSize 50m
attr unit m
par InVehicleNetworkShowcase.visualizer.mediumVisualizer[0] signalFadingDistance 50m
attr unit m
par InVehicleNetworkShowcase.visualizer.mediumVisualizer[0] signalFadingFactor 1.2
par InVehicleNetworkShowcase.visualizer.mediumVisualizer[0] signalWaveCount 20
par InVehicleNetworkShowcase.visualizer.mediumVisualizer[0] signalWaveLength 50m
attr unit m
par InVehicleNetworkShowcase.visualizer.mediumVisualizer[0] signalWaveWidth 10m
attr unit m
par InVehicleNetworkShowcase.visualizer.mediumVisualizer[0] signalWaveFadingAnimationSpeedFactor 1
par InVehicleNetworkShowcase.visualizer.mediumVisualizer[0] displayCommunicationHeat false
par InVehicleNetworkShowcase.visualizer.obstacleLossVisualizer[0] typename "\"inet.visualizer.canvas.physicallayer.TracingObstacleLossCanvasVisualizer\""
par InVehicleNetworkShowcase.visualizer.obstacleLossVisualizer[0] visualizationTargetModule "\"^.^\""
par InVehicleNetworkShowcase.visualizer.obstacleLossVisualizer[0] visualizationSubjectModule "\"^.^\""
par InVehicleNetworkShowcase.visualizer.obstacleLossVisualizer[0] tags "\"\""
par InVehicleNetworkShowcase.visualizer.obstacleLossVisualizer[0] displayIntersections false
par InVehicleNetworkShowcase.visualizer.obstacleLossVisualizer[0] intersectionLineColor "\"red\""
par InVehicleNetworkShowcase.visualizer.obstacleLossVisualizer[0] intersectionLineStyle "\"solid\""
par InVehicleNetworkShowcase.visualizer.obstacleLossVisualizer[0] intersectionLineWidth 1
par InVehicleNetworkShowcase.visualizer.obstacleLossVisualizer[0] displayFaceNormalVectors false
par InVehicleNetworkShowcase.visualizer.obstacleLossVisualizer[0] faceNormalLineColor "\"grey\""
par InVehicleNetworkShowcase.visualizer.obstacleLossVisualizer[0] faceNormalLineStyle "\"solid\""
par InVehicleNetworkShowcase.visualizer.obstacleLossVisualizer[0] faceNormalLineWidth 1
par InVehicleNetworkShowcase.visualizer.obstacleLossVisualizer[0] fadeOutMode "\"realTime\""
attr enum realTime,animationTime,simulationTime
par InVehicleNetworkShowcase.visualizer.obstacleLossVisualizer[0] fadeOutTime 1s
attr unit s
par InVehicleNetworkShowcase.visualizer.obstacleLossVisualizer[0] fadeOutAnimationSpeed 0
par InVehicleNetworkShowcase.visualizer.obstacleLossVisualizer[0] zIndex 0
par InVehicleNetworkShowcase.visualizer.packetDropVisualizer[0] typename "\"inet.visualizer.canvas.common.PacketDropCanvasVisualizer\""
par InVehicleNetworkShowcase.visualizer.packetDropVisualizer[0] visualizationTargetModule "\"^.^\""
par InVehicleNetworkShowcase.visualizer.packetDropVisualizer[0] visualizationSubjectModule "\"^.^\""
par InVehicleNetworkShowcase.visualizer.packetDropVisualizer[0] tags "\"\""
par InVehicleNetworkShowcase.visualizer.packetDropVisualizer[0] displayPacketDrops false
par InVehicleNetworkShowcase.visualizer.packetDropVisualizer[0] nodeFilter "\"*\""
attr mutable ""
par InVehicleNetworkShowcase.visualizer.packetDropVisualizer[0] interfaceFilter "\"*\""
attr mutable ""
par InVehicleNetworkShowcase.visualizer.packetDropVisualizer[0] packetFilter "(omnetpp::cValueHolder)holder: \"*\""
attr mutable ""
par InVehicleNetworkShowcase.visualizer.packetDropVisualizer[0] detailsFilter "\"*\""
attr mutable ""
par InVehicleNetworkShowcase.visualizer.packetDropVisualizer[0] icon "\"msg/packet_s\""
par InVehicleNetworkShowcase.visualizer.packetDropVisualizer[0] iconTintAmount 1
par InVehicleNetworkShowcase.visualizer.packetDropVisualizer[0] iconTintColor "\"dark\""
par InVehicleNetworkShowcase.visualizer.packetDropVisualizer[0] labelFormat "\"%n\""
attr mutable ""
par InVehicleNetworkShowcase.visualizer.packetDropVisualizer[0] labelFont "\"<default>\""
par InVehicleNetworkShowcase.visualizer.packetDropVisualizer[0] labelColor "\"black\""
par InVehicleNetworkShowcase.visualizer.packetDropVisualizer[0] fadeOutMode "\"realTime\""
attr enum realTime,animationTime,simulationTime
par InVehicleNetworkShowcase.visualizer.packetDropVisualizer[0] fadeOutTime 1s
attr unit s
par InVehicleNetworkShowcase.visualizer.packetDropVisualizer[0] fadeOutAnimationSpeed 0
par InVehicleNetworkShowcase.visualizer.packetDropVisualizer[0] zIndex 10
par InVehicleNetworkShowcase.visualizer.packetDropVisualizer[0] dx 32
par InVehicleNetworkShowcase.visualizer.packetDropVisualizer[0] dy 64
par InVehicleNetworkShowcase.visualizer.queueVisualizer[0] typename "\"inet.visualizer.canvas.common.QueueCanvasVisualizer\""
par InVehicleNetworkShowcase.visualizer.queueVisualizer[0] visualizationTargetModule "\"^.^\""
par InVehicleNetworkShowcase.visualizer.queueVisualizer[0] visualizationSubjectModule "\"^.^\""
par InVehicleNetworkShowcase.visualizer.queueVisualizer[0] tags "\"\""
par InVehicleNetworkShowcase.visualizer.queueVisualizer[0] networkNodeVisualizerModule "\"InVehicleNetworkShowcase.visualizer.networkNodeVisualizer[0]\""
par InVehicleNetworkShowcase.visualizer.queueVisualizer[0] displayQueues false
par InVehicleNetworkShowcase.visualizer.queueVisualizer[0] queueFilter "\"**\""
par InVehicleNetworkShowcase.visualizer.queueVisualizer[0] color "\"blue\""
par InVehicleNetworkShowcase.visualizer.queueVisualizer[0] width 8
par InVehicleNetworkShowcase.visualizer.queueVisualizer[0] height 24
par InVehicleNetworkShowcase.visualizer.queueVisualizer[0] spacing 2
par InVehicleNetworkShowcase.visualizer.queueVisualizer[0] placementHint "\"right\""
par InVehicleNetworkShowcase.visualizer.queueVisualizer[0] placementPriority 0
par InVehicleNetworkShowcase.visualizer.queueVisualizer[0] zIndex 10
par InVehicleNetworkShowcase.visualizer.gateScheduleVisualizer[0] typename "\"inet.visualizer.canvas.common.GateScheduleCanvasVisualizer\""
par InVehicleNetworkShowcase.visualizer.gateScheduleVisualizer[0] visualizationTargetModule "\"^.^\""
par InVehicleNetworkShowcase.visualizer.gateScheduleVisualizer[0] visualizationSubjectModule "\"^.^\""
par InVehicleNetworkShowcase.visualizer.gateScheduleVisualizer[0] tags "\"\""
par InVehicleNetworkShowcase.visualizer.gateScheduleVisualizer[0] networkNodeVisualizerModule "\"InVehicleNetworkShowcase.visualizer.networkNodeVisualizer[0]\""
par InVehicleNetworkShowcase.visualizer.gateScheduleVisualizer[0] displayGateSchedules false
par InVehicleNetworkShowcase.visualizer.gateScheduleVisualizer[0] labelFormat "\"%i %D\""
par InVehicleNetworkShowcase.visualizer.gateScheduleVisualizer[0] gateFilter "\"**\""
par InVehicleNetworkShowcase.visualizer.gateScheduleVisualizer[0] width 100
par InVehicleNetworkShowcase.visualizer.gateScheduleVisualizer[0] height 8
par InVehicleNetworkShowcase.visualizer.gateScheduleVisualizer[0] spacing 2
par InVehicleNetworkShowcase.visualizer.gateScheduleVisualizer[0] placementHint "\"right\""
par InVehicleNetworkShowcase.visualizer.gateScheduleVisualizer[0] placementPriority 0
par InVehicleNetworkShowcase.visualizer.gateScheduleVisualizer[0] displayDuration 0s
attr mutable ""
attr unit s
par InVehicleNetworkShowcase.visualizer.gateScheduleVisualizer[0] currentTimePosition 50
par InVehicleNetworkShowcase.visualizer.gateScheduleVisualizer[0] zIndex 10
par InVehicleNetworkShowcase.visualizer.radioVisualizer[0] typename "\"inet.visualizer.canvas.physicallayer.RadioCanvasVisualizer\""
par InVehicleNetworkShowcase.visualizer.radioVisualizer[0] visualizationTargetModule "\"^.^\""
par InVehicleNetworkShowcase.visualizer.radioVisualizer[0] visualizationSubjectModule "\"^.^\""
par InVehicleNetworkShowcase.visualizer.radioVisualizer[0] tags "\"\""
par InVehicleNetworkShowcase.visualizer.radioVisualizer[0] networkNodeVisualizerModule "\"InVehicleNetworkShowcase.visualizer.networkNodeVisualizer[0]\""
par InVehicleNetworkShowcase.visualizer.radioVisualizer[0] displayRadios false
par InVehicleNetworkShowcase.visualizer.radioVisualizer[0] displayRadioMode true
par InVehicleNetworkShowcase.visualizer.radioVisualizer[0] displayReceptionState true
par InVehicleNetworkShowcase.visualizer.radioVisualizer[0] displayTransmissionState true
par InVehicleNetworkShowcase.visualizer.radioVisualizer[0] displayAntennaLobes false
par InVehicleNetworkShowcase.visualizer.radioVisualizer[0] radioFilter "\"**\""
attr mutable ""
par InVehicleNetworkShowcase.visualizer.radioVisualizer[0] radioModeImages "\"block/process_vs block/timer_vs block/wrx_vs block/wtx_vs block/wrxtx_vs block/cogwheel_vs\""
par InVehicleNetworkShowcase.visualizer.radioVisualizer[0] receptionStateImages "\"- - misc/receiving misc/receiving\""
par InVehicleNetworkShowcase.visualizer.radioVisualizer[0] transmissionStateImages "\"- - misc/transmitting\""
par InVehicleNetworkShowcase.visualizer.radioVisualizer[0] width 16
par InVehicleNetworkShowcase.visualizer.radioVisualizer[0] height 16
par InVehicleNetworkShowcase.visualizer.radioVisualizer[0] placementHint "\"bottomRight\""
par InVehicleNetworkShowcase.visualizer.radioVisualizer[0] placementPriority 0
par InVehicleNetworkShowcase.visualizer.radioVisualizer[0] antennaLobeNormalize false
par InVehicleNetworkShowcase.visualizer.radioVisualizer[0] antennaLobeRelativeLabels false
par InVehicleNetworkShowcase.visualizer.radioVisualizer[0] antennaLobePlaneGlobal true
par InVehicleNetworkShowcase.visualizer.radioVisualizer[0] antennaLobePlane "\"view\""
attr enum view,xy,xz,yz
par InVehicleNetworkShowcase.visualizer.radioVisualizer[0] antennaLobeMode "\"logarithmic\""
attr enum logarithmic,linear
par InVehicleNetworkShowcase.visualizer.radioVisualizer[0] antennaLobeLogarithmicBase 10
par InVehicleNetworkShowcase.visualizer.radioVisualizer[0] antennaLobeLogarithmicScale 100
par InVehicleNetworkShowcase.visualizer.radioVisualizer[0] antennaLobeRadius 100
par InVehicleNetworkShowcase.visualizer.radioVisualizer[0] antennaLobeStep 10deg
attr unit deg
par InVehicleNetworkShowcase.visualizer.radioVisualizer[0] antennaLobeOpacity 0.25
par InVehicleNetworkShowcase.visualizer.radioVisualizer[0] antennaLobeLineSmooth true
par InVehicleNetworkShowcase.visualizer.radioVisualizer[0] antennaLobeLineColor "\"black\""
par InVehicleNetworkShowcase.visualizer.radioVisualizer[0] antennaLobeLineStyle "\"solid\""
par InVehicleNetworkShowcase.visualizer.radioVisualizer[0] antennaLobeLineWidth 1
par InVehicleNetworkShowcase.visualizer.radioVisualizer[0] antennaLobeFillColor "\"white\""
par InVehicleNetworkShowcase.visualizer.radioVisualizer[0] zIndex 10
par InVehicleNetworkShowcase.visualizer.physicalLinkVisualizer[0] typename "\"inet.visualizer.canvas.physicallayer.PhysicalLinkCanvasVisualizer\""
par InVehicleNetworkShowcase.visualizer.physicalLinkVisualizer[0] visualizationTargetModule "\"^.^\""
par InVehicleNetworkShowcase.visualizer.physicalLinkVisualizer[0] visualizationSubjectModule "\"^.^\""
par InVehicleNetworkShowcase.visualizer.physicalLinkVisualizer[0] tags "\"\""
par InVehicleNetworkShowcase.visualizer.physicalLinkVisualizer[0] displayLinks false
par InVehicleNetworkShowcase.visualizer.physicalLinkVisualizer[0] activityLevel "\"service\""
attr enum service,peer,protocol
par InVehicleNetworkShowcase.visualizer.physicalLinkVisualizer[0] nodeFilter "\"*\""
attr mutable ""
par InVehicleNetworkShowcase.visualizer.physicalLinkVisualizer[0] interfaceFilter "\"*\""
attr mutable ""
par InVehicleNetworkShowcase.visualizer.physicalLinkVisualizer[0] packetFilter "(omnetpp::cValueHolder)holder: \"*\""
attr mutable ""
par InVehicleNetworkShowcase.visualizer.physicalLinkVisualizer[0] lineColor "\"olive\""
par InVehicleNetworkShowcase.visualizer.physicalLinkVisualizer[0] lineStyle "\"dotted\""
par InVehicleNetworkShowcase.visualizer.physicalLinkVisualizer[0] lineWidth 3
par InVehicleNetworkShowcase.visualizer.physicalLinkVisualizer[0] lineShift 16
par InVehicleNetworkShowcase.visualizer.physicalLinkVisualizer[0] lineShiftMode "\"normal\""
par InVehicleNetworkShowcase.visualizer.physicalLinkVisualizer[0] lineContactSpacing 3
par InVehicleNetworkShowcase.visualizer.physicalLinkVisualizer[0] lineContactMode "\"rectangular\""
attr enum circular,rectangular
par InVehicleNetworkShowcase.visualizer.physicalLinkVisualizer[0] labelFormat "\"%n\""
par InVehicleNetworkShowcase.visualizer.physicalLinkVisualizer[0] labelFont "\"<default>, 8px\""
par InVehicleNetworkShowcase.visualizer.physicalLinkVisualizer[0] labelColor "\"olive\""
par InVehicleNetworkShowcase.visualizer.physicalLinkVisualizer[0] fadeOutMode "\"realTime\""
attr enum realTime,animationTime,simulationTime
par InVehicleNetworkShowcase.visualizer.physicalLinkVisualizer[0] fadeOutTime 1s
attr unit s
par InVehicleNetworkShowcase.visualizer.physicalLinkVisualizer[0] fadeOutAnimationSpeed 0
par InVehicleNetworkShowcase.visualizer.physicalLinkVisualizer[0] holdAnimationTime 0s
attr unit s
par InVehicleNetworkShowcase.visualizer.physicalLinkVisualizer[0] zIndex 1
par InVehicleNetworkShowcase.visualizer.interfaceTableVisualizer[0] typename "\"inet.visualizer.canvas.linklayer.InterfaceTableCanvasVisualizer\""
par InVehicleNetworkShowcase.visualizer.interfaceTableVisualizer[0] visualizationTargetModule "\"^.^\""
par InVehicleNetworkShowcase.visualizer.interfaceTableVisualizer[0] visualizationSubjectModule "\"^.^\""
par InVehicleNetworkShowcase.visualizer.interfaceTableVisualizer[0] tags "\"\""
par InVehicleNetworkShowcase.visualizer.interfaceTableVisualizer[0] networkNodeVisualizerModule "\"InVehicleNetworkShowcase.visualizer.networkNodeVisualizer[0]\""
par InVehicleNetworkShowcase.visualizer.interfaceTableVisualizer[0] displayInterfaceTables false
par InVehicleNetworkShowcase.visualizer.interfaceTableVisualizer[0] displayWiredInterfacesAtConnections true
par InVehicleNetworkShowcase.visualizer.interfaceTableVisualizer[0] displayBackground false
par InVehicleNetworkShowcase.visualizer.interfaceTableVisualizer[0] nodeFilter "\"*\""
attr mutable ""
par InVehicleNetworkShowcase.visualizer.interfaceTableVisualizer[0] interfaceFilter "\"not(lo*)\""
attr mutable ""
par InVehicleNetworkShowcase.visualizer.interfaceTableVisualizer[0] format "\"%N %\\\\%a%/%l\""
attr mutable ""
par InVehicleNetworkShowcase.visualizer.interfaceTableVisualizer[0] placementHint "\"top\""
par InVehicleNetworkShowcase.visualizer.interfaceTableVisualizer[0] placementPriority 0
par InVehicleNetworkShowcase.visualizer.interfaceTableVisualizer[0] font "\"<default>\""
par InVehicleNetworkShowcase.visualizer.interfaceTableVisualizer[0] textColor "\"#005030\""
par InVehicleNetworkShowcase.visualizer.interfaceTableVisualizer[0] backgroundColor "\"white\""
par InVehicleNetworkShowcase.visualizer.interfaceTableVisualizer[0] opacity 1
par InVehicleNetworkShowcase.visualizer.interfaceTableVisualizer[0] zIndex 10
par InVehicleNetworkShowcase.visualizer.dataLinkVisualizer[0] typename "\"inet.visualizer.canvas.linklayer.DataLinkCanvasVisualizer\""
par InVehicleNetworkShowcase.visualizer.dataLinkVisualizer[0] visualizationTargetModule "\"^.^\""
par InVehicleNetworkShowcase.visualizer.dataLinkVisualizer[0] visualizationSubjectModule "\"^.^\""
par InVehicleNetworkShowcase.visualizer.dataLinkVisualizer[0] tags "\"\""
par InVehicleNetworkShowcase.visualizer.dataLinkVisualizer[0] displayLinks true
par InVehicleNetworkShowcase.visualizer.dataLinkVisualizer[0] activityLevel "\"protocol\""
attr enum service,peer,protocol
par InVehicleNetworkShowcase.visualizer.dataLinkVisualizer[0] nodeFilter "\"*\""
attr mutable ""
par InVehicleNetworkShowcase.visualizer.dataLinkVisualizer[0] interfaceFilter "\"*\""
attr mutable ""
par InVehicleNetworkShowcase.visualizer.dataLinkVisualizer[0] packetFilter "(omnetpp::cValueHolder)holder: \"*Camera*\""
attr mutable ""
par InVehicleNetworkShowcase.visualizer.dataLinkVisualizer[0] lineColor "\"blue4\""
par InVehicleNetworkShowcase.visualizer.dataLinkVisualizer[0] lineStyle "\"solid\""
par InVehicleNetworkShowcase.visualizer.dataLinkVisualizer[0] lineWidth 3
par InVehicleNetworkShowcase.visualizer.dataLinkVisualizer[0] lineShift 16
par InVehicleNetworkShowcase.visualizer.dataLinkVisualizer[0] lineShiftMode "\"normal\""
par InVehicleNetworkShowcase.visualizer.dataLinkVisualizer[0] lineContactSpacing 3
par InVehicleNetworkShowcase.visualizer.dataLinkVisualizer[0] lineContactMode "\"rectangular\""
attr enum circular,rectangular
par InVehicleNetworkShowcase.visualizer.dataLinkVisualizer[0] labelFormat "\"%n\""
par InVehicleNetworkShowcase.visualizer.dataLinkVisualizer[0] labelFont "\"<default>, 8px\""
par InVehicleNetworkShowcase.visualizer.dataLinkVisualizer[0] labelColor "\"blue4\""
par InVehicleNetworkShowcase.visualizer.dataLinkVisualizer[0] fadeOutMode "\"realTime\""
attr enum realTime,animationTime,simulationTime
par InVehicleNetworkShowcase.visualizer.dataLinkVisualizer[0] fadeOutTime 1s
attr unit s
par InVehicleNetworkShowcase.visualizer.dataLinkVisualizer[0] fadeOutAnimationSpeed 0
par InVehicleNetworkShowcase.visualizer.dataLinkVisualizer[0] holdAnimationTime 0s
attr unit s
par InVehicleNetworkShowcase.visualizer.dataLinkVisualizer[0] zIndex 2
par InVehicleNetworkShowcase.visualizer.linkBreakVisualizer[0] typename "\"inet.visualizer.canvas.linklayer.LinkBreakCanvasVisualizer\""
par InVehicleNetworkShowcase.visualizer.linkBreakVisualizer[0] visualizationTargetModule "\"^.^\""
par InVehicleNetworkShowcase.visualizer.linkBreakVisualizer[0] visualizationSubjectModule "\"^.^\""
par InVehicleNetworkShowcase.visualizer.linkBreakVisualizer[0] tags "\"\""
par InVehicleNetworkShowcase.visualizer.linkBreakVisualizer[0] displayLinkBreaks false
par InVehicleNetworkShowcase.visualizer.linkBreakVisualizer[0] nodeFilter "\"*\""
attr mutable ""
par InVehicleNetworkShowcase.visualizer.linkBreakVisualizer[0] interfaceFilter "\"*\""
attr mutable ""
par InVehicleNetworkShowcase.visualizer.linkBreakVisualizer[0] packetFilter "(omnetpp::cValueHolder)holder: \"*\""
attr mutable ""
par InVehicleNetworkShowcase.visualizer.linkBreakVisualizer[0] icon "\"status/stop\""
par InVehicleNetworkShowcase.visualizer.linkBreakVisualizer[0] iconTintAmount 0
par InVehicleNetworkShowcase.visualizer.linkBreakVisualizer[0] iconTintColor "\"\""
par InVehicleNetworkShowcase.visualizer.linkBreakVisualizer[0] fadeOutMode "\"realTime\""
attr enum realTime,animationTime,simulationTime
par InVehicleNetworkShowcase.visualizer.linkBreakVisualizer[0] fadeOutTime 1s
attr unit s
par InVehicleNetworkShowcase.visualizer.linkBreakVisualizer[0] fadeOutAnimationSpeed 0
par InVehicleNetworkShowcase.visualizer.linkBreakVisualizer[0] zIndex 2
par InVehicleNetworkShowcase.visualizer.ieee80211Visualizer[0] typename "\"inet.visualizer.canvas.linklayer.Ieee80211CanvasVisualizer\""
par InVehicleNetworkShowcase.visualizer.ieee80211Visualizer[0] visualizationTargetModule "\"^.^\""
par InVehicleNetworkShowcase.visualizer.ieee80211Visualizer[0] visualizationSubjectModule "\"^.^\""
par InVehicleNetworkShowcase.visualizer.ieee80211Visualizer[0] tags "\"\""
par InVehicleNetworkShowcase.visualizer.ieee80211Visualizer[0] networkNodeVisualizerModule "\"InVehicleNetworkShowcase.visualizer.networkNodeVisualizer[0]\""
par InVehicleNetworkShowcase.visualizer.ieee80211Visualizer[0] displayAssociations false
par InVehicleNetworkShowcase.visualizer.ieee80211Visualizer[0] nodeFilter "\"*\""
attr mutable ""
par InVehicleNetworkShowcase.visualizer.ieee80211Visualizer[0] interfaceFilter "\"*\""
attr mutable ""
par InVehicleNetworkShowcase.visualizer.ieee80211Visualizer[0] minPower -85dBm
attr unit dBm
par InVehicleNetworkShowcase.visualizer.ieee80211Visualizer[0] maxPower -50dBm
attr unit dBm
par InVehicleNetworkShowcase.visualizer.ieee80211Visualizer[0] icons "\"misc/signal_power_0 misc/signal_power_1 misc/signal_power_2 misc/signal_power_3\""
par InVehicleNetworkShowcase.visualizer.ieee80211Visualizer[0] iconColor "\"dark\""
attr enum light,dark
par InVehicleNetworkShowcase.visualizer.ieee80211Visualizer[0] labelFont "\"<default>\""
par InVehicleNetworkShowcase.visualizer.ieee80211Visualizer[0] labelColor "\"black\""
par InVehicleNetworkShowcase.visualizer.ieee80211Visualizer[0] placementHint "\"top\""
par InVehicleNetworkShowcase.visualizer.ieee80211Visualizer[0] placementPriority 0
par InVehicleNetworkShowcase.visualizer.ieee80211Visualizer[0] zIndex 2
par InVehicleNetworkShowcase.visualizer.networkRouteVisualizer[0] typename "\"inet.visualizer.canvas.networklayer.NetworkRouteCanvasVisualizer\""
par InVehicleNetworkShowcase.visualizer.networkRouteVisualizer[0] visualizationTargetModule "\"^.^\""
par InVehicleNetworkShowcase.visualizer.networkRouteVisualizer[0] visualizationSubjectModule "\"^.^\""
par InVehicleNetworkShowcase.visualizer.networkRouteVisualizer[0] tags "\"\""
par InVehicleNetworkShowcase.visualizer.networkRouteVisualizer[0] displayRoutes true
par InVehicleNetworkShowcase.visualizer.networkRouteVisualizer[0] startPathSignal "\"packetReceivedFromUpper\""
par InVehicleNetworkShowcase.visualizer.networkRouteVisualizer[0] extendPathSignal "\"packetReceivedFromLower\""
par InVehicleNetworkShowcase.visualizer.networkRouteVisualizer[0] endPathSignal "\"packetSentToUpper\""
par InVehicleNetworkShowcase.visualizer.networkRouteVisualizer[0] nodeFilter "\"*\""
attr mutable ""
par InVehicleNetworkShowcase.visualizer.networkRouteVisualizer[0] packetFilter "(omnetpp::cValueHolder)holder: \"*steering* or *Wheel*\""
attr mutable ""
par InVehicleNetworkShowcase.visualizer.networkRouteVisualizer[0] lineColor "\"red4\""
attr enum light,dark
par InVehicleNetworkShowcase.visualizer.networkRouteVisualizer[0] lineStyle "\"solid\""
par InVehicleNetworkShowcase.visualizer.networkRouteVisualizer[0] lineWidth 3
par InVehicleNetworkShowcase.visualizer.networkRouteVisualizer[0] lineSmooth false
par InVehicleNetworkShowcase.visualizer.networkRouteVisualizer[0] lineShift 16
par InVehicleNetworkShowcase.visualizer.networkRouteVisualizer[0] lineShiftMode "\"normal\""
par InVehicleNetworkShowcase.visualizer.networkRouteVisualizer[0] lineContactSpacing 3
par InVehicleNetworkShowcase.visualizer.networkRouteVisualizer[0] lineContactMode "\"rectangular\""
attr enum circular,rectangular
par InVehicleNetworkShowcase.visualizer.networkRouteVisualizer[0] labelFormat "\"%n\""
par InVehicleNetworkShowcase.visualizer.networkRouteVisualizer[0] labelFont "\"<default>, 8px\""
par InVehicleNetworkShowcase.visualizer.networkRouteVisualizer[0] labelColor "\"\""
par InVehicleNetworkShowcase.visualizer.networkRouteVisualizer[0] fadeOutMode "\"realTime\""
attr enum realTime,animationTime,simulationTime
par InVehicleNetworkShowcase.visualizer.networkRouteVisualizer[0] fadeOutTime 1s
attr unit s
par InVehicleNetworkShowcase.visualizer.networkRouteVisualizer[0] fadeOutAnimationSpeed 0
par InVehicleNetworkShowcase.visualizer.networkRouteVisualizer[0] zIndex 3
par InVehicleNetworkShowcase.visualizer.networkRouteVisualizer[1] typename "\"inet.visualizer.canvas.networklayer.NetworkRouteCanvasVisualizer\""
par InVehicleNetworkShowcase.visualizer.networkRouteVisualizer[1] visualizationTargetModule "\"^.^\""
par InVehicleNetworkShowcase.visualizer.networkRouteVisualizer[1] visualizationSubjectModule "\"^.^\""
par InVehicleNetworkShowcase.visualizer.networkRouteVisualizer[1] tags "\"\""
par InVehicleNetworkShowcase.visualizer.networkRouteVisualizer[1] displayRoutes true
par InVehicleNetworkShowcase.visualizer.networkRouteVisualizer[1] startPathSignal "\"packetReceivedFromUpper\""
par InVehicleNetworkShowcase.visualizer.networkRouteVisualizer[1] extendPathSignal "\"packetReceivedFromLower\""
par InVehicleNetworkShowcase.visualizer.networkRouteVisualizer[1] endPathSignal "\"packetSentToUpper\""
par InVehicleNetworkShowcase.visualizer.networkRouteVisualizer[1] nodeFilter "\"*\""
attr mutable ""
par InVehicleNetworkShowcase.visualizer.networkRouteVisualizer[1] packetFilter "(omnetpp::cValueHolder)holder: \"*lidar*\""
attr mutable ""
par InVehicleNetworkShowcase.visualizer.networkRouteVisualizer[1] lineColor "\"blue4\""
attr enum light,dark
par InVehicleNetworkShowcase.visualizer.networkRouteVisualizer[1] lineStyle "\"solid\""
par InVehicleNetworkShowcase.visualizer.networkRouteVisualizer[1] lineWidth 3
par InVehicleNetworkShowcase.visualizer.networkRouteVisualizer[1] lineSmooth false
par InVehicleNetworkShowcase.visualizer.networkRouteVisualizer[1] lineShift 16
par InVehicleNetworkShowcase.visualizer.networkRouteVisualizer[1] lineShiftMode "\"normal\""
par InVehicleNetworkShowcase.visualizer.networkRouteVisualizer[1] lineContactSpacing 3
par InVehicleNetworkShowcase.visualizer.networkRouteVisualizer[1] lineContactMode "\"rectangular\""
attr enum circular,rectangular
par InVehicleNetworkShowcase.visualizer.networkRouteVisualizer[1] labelFormat "\"%n\""
par InVehicleNetworkShowcase.visualizer.networkRouteVisualizer[1] labelFont "\"<default>, 8px\""
par InVehicleNetworkShowcase.visualizer.networkRouteVisualizer[1] labelColor "\"\""
par InVehicleNetworkShowcase.visualizer.networkRouteVisualizer[1] fadeOutMode "\"realTime\""
attr enum realTime,animationTime,simulationTime
par InVehicleNetworkShowcase.visualizer.networkRouteVisualizer[1] fadeOutTime 1s
attr unit s
par InVehicleNetworkShowcase.visualizer.networkRouteVisualizer[1] fadeOutAnimationSpeed 0
par InVehicleNetworkShowcase.visualizer.networkRouteVisualizer[1] zIndex 3
par InVehicleNetworkShowcase.visualizer.networkRouteVisualizer[2] typename "\"inet.visualizer.canvas.networklayer.NetworkRouteCanvasVisualizer\""
par InVehicleNetworkShowcase.visualizer.networkRouteVisualizer[2] visualizationTargetModule "\"^.^\""
par InVehicleNetworkShowcase.visualizer.networkRouteVisualizer[2] visualizationSubjectModule "\"^.^\""
par InVehicleNetworkShowcase.visualizer.networkRouteVisualizer[2] tags "\"\""
par InVehicleNetworkShowcase.visualizer.networkRouteVisualizer[2] displayRoutes true
par InVehicleNetworkShowcase.visualizer.networkRouteVisualizer[2] startPathSignal "\"packetReceivedFromUpper\""
par InVehicleNetworkShowcase.visualizer.networkRouteVisualizer[2] extendPathSignal "\"packetReceivedFromLower\""
par InVehicleNetworkShowcase.visualizer.networkRouteVisualizer[2] endPathSignal "\"packetSentToUpper\""
par InVehicleNetworkShowcase.visualizer.networkRouteVisualizer[2] nodeFilter "\"*\""
attr mutable ""
par InVehicleNetworkShowcase.visualizer.networkRouteVisualizer[2] packetFilter "(omnetpp::cValueHolder)holder: \"*rearDisplay*\""
attr mutable ""
par InVehicleNetworkShowcase.visualizer.networkRouteVisualizer[2] lineColor "\"green4\""
attr enum light,dark
par InVehicleNetworkShowcase.visualizer.networkRouteVisualizer[2] lineStyle "\"solid\""
par InVehicleNetworkShowcase.visualizer.networkRouteVisualizer[2] lineWidth 3
par InVehicleNetworkShowcase.visualizer.networkRouteVisualizer[2] lineSmooth false
par InVehicleNetworkShowcase.visualizer.networkRouteVisualizer[2] lineShift 16
par InVehicleNetworkShowcase.visualizer.networkRouteVisualizer[2] lineShiftMode "\"normal\""
par InVehicleNetworkShowcase.visualizer.networkRouteVisualizer[2] lineContactSpacing 3
par InVehicleNetworkShowcase.visualizer.networkRouteVisualizer[2] lineContactMode "\"rectangular\""
attr enum circular,rectangular
par InVehicleNetworkShowcase.visualizer.networkRouteVisualizer[2] labelFormat "\"%n\""
par InVehicleNetworkShowcase.visualizer.networkRouteVisualizer[2] labelFont "\"<default>, 8px\""
par InVehicleNetworkShowcase.visualizer.networkRouteVisualizer[2] labelColor "\"\""
par InVehicleNetworkShowcase.visualizer.networkRouteVisualizer[2] fadeOutMode "\"realTime\""
attr enum realTime,animationTime,simulationTime
par InVehicleNetworkShowcase.visualizer.networkRouteVisualizer[2] fadeOutTime 1s
attr unit s
par InVehicleNetworkShowcase.visualizer.networkRouteVisualizer[2] fadeOutAnimationSpeed 0
par InVehicleNetworkShowcase.visualizer.networkRouteVisualizer[2] zIndex 3
par InVehicleNetworkShowcase.visualizer.networkRouteVisualizer[3] typename "\"inet.visualizer.canvas.networklayer.NetworkRouteCanvasVisualizer\""
par InVehicleNetworkShowcase.visualizer.networkRouteVisualizer[3] visualizationTargetModule "\"^.^\""
par InVehicleNetworkShowcase.visualizer.networkRouteVisualizer[3] visualizationSubjectModule "\"^.^\""
par InVehicleNetworkShowcase.visualizer.networkRouteVisualizer[3] tags "\"\""
par InVehicleNetworkShowcase.visualizer.networkRouteVisualizer[3] displayRoutes true
par InVehicleNetworkShowcase.visualizer.networkRouteVisualizer[3] startPathSignal "\"packetReceivedFromUpper\""
par InVehicleNetworkShowcase.visualizer.networkRouteVisualizer[3] extendPathSignal "\"packetReceivedFromLower\""
par InVehicleNetworkShowcase.visualizer.networkRouteVisualizer[3] endPathSignal "\"packetSentToUpper\""
par InVehicleNetworkShowcase.visualizer.networkRouteVisualizer[3] nodeFilter "\"*\""
attr mutable ""
par InVehicleNetworkShowcase.visualizer.networkRouteVisualizer[3] packetFilter "(omnetpp::cValueHolder)holder: \"*obu->hud*\""
attr mutable ""
par InVehicleNetworkShowcase.visualizer.networkRouteVisualizer[3] lineColor "\"gray\""
attr enum light,dark
par InVehicleNetworkShowcase.visualizer.networkRouteVisualizer[3] lineStyle "\"solid\""
par InVehicleNetworkShowcase.visualizer.networkRouteVisualizer[3] lineWidth 3
par InVehicleNetworkShowcase.visualizer.networkRouteVisualizer[3] lineSmooth false
par InVehicleNetworkShowcase.visualizer.networkRouteVisualizer[3] lineShift 16
par InVehicleNetworkShowcase.visualizer.networkRouteVisualizer[3] lineShiftMode "\"normal\""
par InVehicleNetworkShowcase.visualizer.networkRouteVisualizer[3] lineContactSpacing 3
par InVehicleNetworkShowcase.visualizer.networkRouteVisualizer[3] lineContactMode "\"rectangular\""
attr enum circular,rectangular
par InVehicleNetworkShowcase.visualizer.networkRouteVisualizer[3] labelFormat "\"%n\""
par InVehicleNetworkShowcase.visualizer.networkRouteVisualizer[3] labelFont "\"<default>, 8px\""
par InVehicleNetworkShowcase.visualizer.networkRouteVisualizer[3] labelColor "\"\""
par InVehicleNetworkShowcase.visualizer.networkRouteVisualizer[3] fadeOutMode "\"realTime\""
attr enum realTime,animationTime,simulationTime
par InVehicleNetworkShowcase.visualizer.networkRouteVisualizer[3] fadeOutTime 1s
attr unit s
par InVehicleNetworkShowcase.visualizer.networkRouteVisualizer[3] fadeOutAnimationSpeed 0
par InVehicleNetworkShowcase.visualizer.networkRouteVisualizer[3] zIndex 3
par InVehicleNetworkShowcase.visualizer.routingTableVisualizer[0] typename "\"inet.visualizer.canvas.networklayer.RoutingTableCanvasVisualizer\""
par InVehicleNetworkShowcase.visualizer.routingTableVisualizer[0] visualizationTargetModule "\"^.^\""
par InVehicleNetworkShowcase.visualizer.routingTableVisualizer[0] visualizationSubjectModule "\"^.^\""
par InVehicleNetworkShowcase.visualizer.routingTableVisualizer[0] tags "\"\""
par InVehicleNetworkShowcase.visualizer.routingTableVisualizer[0] displayRoutingTables false
par InVehicleNetworkShowcase.visualizer.routingTableVisualizer[0] displayRoutesIndividually true
par InVehicleNetworkShowcase.visualizer.routingTableVisualizer[0] displayLabels true
par InVehicleNetworkShowcase.visualizer.routingTableVisualizer[0] destinationFilter "\"*\""
attr mutable ""
par InVehicleNetworkShowcase.visualizer.routingTableVisualizer[0] nodeFilter "\"*\""
attr mutable ""
par InVehicleNetworkShowcase.visualizer.routingTableVisualizer[0] lineColor "\"black\""
par InVehicleNetworkShowcase.visualizer.routingTableVisualizer[0] lineStyle "\"solid\""
par InVehicleNetworkShowcase.visualizer.routingTableVisualizer[0] lineWidth 2
par InVehicleNetworkShowcase.visualizer.routingTableVisualizer[0] lineShift 16
par InVehicleNetworkShowcase.visualizer.routingTableVisualizer[0] lineShiftMode "\"normal\""
par InVehicleNetworkShowcase.visualizer.routingTableVisualizer[0] lineContactSpacing 3
par InVehicleNetworkShowcase.visualizer.routingTableVisualizer[0] lineContactMode "\"rectangular\""
attr enum circular,rectangular
par InVehicleNetworkShowcase.visualizer.routingTableVisualizer[0] labelFormat "\"%d/%m -> %g (%n)\""
attr mutable ""
par InVehicleNetworkShowcase.visualizer.routingTableVisualizer[0] labelFont "\"<default>, 8px\""
par InVehicleNetworkShowcase.visualizer.routingTableVisualizer[0] labelColor "\"black\""
par InVehicleNetworkShowcase.visualizer.routingTableVisualizer[0] zIndex 0
par InVehicleNetworkShowcase.visualizer.transportRouteVisualizer[0] typename "\"inet.visualizer.canvas.transportlayer.TransportRouteCanvasVisualizer\""
par InVehicleNetworkShowcase.visualizer.transportRouteVisualizer[0] visualizationTargetModule "\"^.^\""
par InVehicleNetworkShowcase.visualizer.transportRouteVisualizer[0] visualizationSubjectModule "\"^.^\""
par InVehicleNetworkShowcase.visualizer.transportRouteVisualizer[0] tags "\"\""
par InVehicleNetworkShowcase.visualizer.transportRouteVisualizer[0] displayRoutes false
par InVehicleNetworkShowcase.visualizer.transportRouteVisualizer[0] startPathSignal "\"packetReceivedFromUpper\""
par InVehicleNetworkShowcase.visualizer.transportRouteVisualizer[0] extendPathSignal "\"packetReceivedFromLower\""
par InVehicleNetworkShowcase.visualizer.transportRouteVisualizer[0] endPathSignal "\"packetSentToUpper\""
par InVehicleNetworkShowcase.visualizer.transportRouteVisualizer[0] nodeFilter "\"*\""
attr mutable ""
par InVehicleNetworkShowcase.visualizer.transportRouteVisualizer[0] packetFilter "(omnetpp::cValueHolder)holder: \"*\""
attr mutable ""
par InVehicleNetworkShowcase.visualizer.transportRouteVisualizer[0] lineColor "\"dark\""
attr enum light,dark
par InVehicleNetworkShowcase.visualizer.transportRouteVisualizer[0] lineStyle "\"solid\""
par InVehicleNetworkShowcase.visualizer.transportRouteVisualizer[0] lineWidth 3
par InVehicleNetworkShowcase.visualizer.transportRouteVisualizer[0] lineSmooth false
par InVehicleNetworkShowcase.visualizer.transportRouteVisualizer[0] lineShift 16
par InVehicleNetworkShowcase.visualizer.transportRouteVisualizer[0] lineShiftMode "\"normal\""
par InVehicleNetworkShowcase.visualizer.transportRouteVisualizer[0] lineContactSpacing 3
par InVehicleNetworkShowcase.visualizer.transportRouteVisualizer[0] lineContactMode "\"rectangular\""
attr enum circular,rectangular
par InVehicleNetworkShowcase.visualizer.transportRouteVisualizer[0] labelFormat "\"%n\""
par InVehicleNetworkShowcase.visualizer.transportRouteVisualizer[0] labelFont "\"<default>, 8px\""
par InVehicleNetworkShowcase.visualizer.transportRouteVisualizer[0] labelColor "\"\""
par InVehicleNetworkShowcase.visualizer.transportRouteVisualizer[0] fadeOutMode "\"realTime\""
attr enum realTime,animationTime,simulationTime
par InVehicleNetworkShowcase.visualizer.transportRouteVisualizer[0] fadeOutTime 1s
attr unit s
par InVehicleNetworkShowcase.visualizer.transportRouteVisualizer[0] fadeOutAnimationSpeed 0
par InVehicleNetworkShowcase.visualizer.transportRouteVisualizer[0] zIndex 4
par InVehicleNetworkShowcase.visualizer.transportConnectionVisualizer[0] typename "\"inet.visualizer.canvas.transportlayer.TransportConnectionCanvasVisualizer\""
par InVehicleNetworkShowcase.visualizer.transportConnectionVisualizer[0] visualizationTargetModule "\"^.^\""
par InVehicleNetworkShowcase.visualizer.transportConnectionVisualizer[0] visualizationSubjectModule "\"^.^\""
par InVehicleNetworkShowcase.visualizer.transportConnectionVisualizer[0] tags "\"\""
par InVehicleNetworkShowcase.visualizer.transportConnectionVisualizer[0] networkNodeVisualizerModule "\"InVehicleNetworkShowcase.visualizer.networkNodeVisualizer[0]\""
par InVehicleNetworkShowcase.visualizer.transportConnectionVisualizer[0] displayTransportConnections false
par InVehicleNetworkShowcase.visualizer.transportConnectionVisualizer[0] sourceNodeFilter "\"*\""
attr mutable ""
par InVehicleNetworkShowcase.visualizer.transportConnectionVisualizer[0] sourcePortFilter "\"*\""
attr mutable ""
par InVehicleNetworkShowcase.visualizer.transportConnectionVisualizer[0] destinationNodeFilter "\"*\""
attr mutable ""
par InVehicleNetworkShowcase.visualizer.transportConnectionVisualizer[0] destinationPortFilter "\"*\""
attr mutable ""
par InVehicleNetworkShowcase.visualizer.transportConnectionVisualizer[0] icon "\"misc/marker_s\""
par InVehicleNetworkShowcase.visualizer.transportConnectionVisualizer[0] iconColor "\"dark\""
attr enum light,dark
par InVehicleNetworkShowcase.visualizer.transportConnectionVisualizer[0] labelFont "\"<default>\""
par InVehicleNetworkShowcase.visualizer.transportConnectionVisualizer[0] labelColor "\"black\""
par InVehicleNetworkShowcase.visualizer.transportConnectionVisualizer[0] placementHint "\"top\""
par InVehicleNetworkShowcase.visualizer.transportConnectionVisualizer[0] placementPriority 0
par InVehicleNetworkShowcase.visualizer.transportConnectionVisualizer[0] zIndex 4
par InVehicleNetworkShowcase.visualizer.failureProtectionConfigurationVisualizer[0] typename "\"inet.visualizer.canvas.configurator.FailureProtectionConfigurationCanvasVisualizer\""
par InVehicleNetworkShowcase.visualizer.failureProtectionConfigurationVisualizer[0] visualizationTargetModule "\"^.^\""
par InVehicleNetworkShowcase.visualizer.failureProtectionConfigurationVisualizer[0] visualizationSubjectModule "\"^.^\""
par InVehicleNetworkShowcase.visualizer.failureProtectionConfigurationVisualizer[0] tags "\"\""
par InVehicleNetworkShowcase.visualizer.failureProtectionConfigurationVisualizer[0] displayTrees false
par InVehicleNetworkShowcase.visualizer.failureProtectionConfigurationVisualizer[0] lineColor "\"dark\""
attr enum light,dark
par InVehicleNetworkShowcase.visualizer.failureProtectionConfigurationVisualizer[0] lineStyle "\"solid\""
par InVehicleNetworkShowcase.visualizer.failureProtectionConfigurationVisualizer[0] lineWidth 3
par InVehicleNetworkShowcase.visualizer.failureProtectionConfigurationVisualizer[0] lineSmooth false
par InVehicleNetworkShowcase.visualizer.failureProtectionConfigurationVisualizer[0] lineShift 16
par InVehicleNetworkShowcase.visualizer.failureProtectionConfigurationVisualizer[0] lineShiftMode "\"normal\""
par InVehicleNetworkShowcase.visualizer.failureProtectionConfigurationVisualizer[0] lineContactSpacing 3
par InVehicleNetworkShowcase.visualizer.failureProtectionConfigurationVisualizer[0] lineContactMode "\"rectangular\""
attr enum circular,rectangular
par InVehicleNetworkShowcase.visualizer.failureProtectionConfigurationVisualizer[0] failureProtectionConfiguratorModule "\"failureProtectionConfigurator\""
par InVehicleNetworkShowcase.visualizer.failureProtectionConfigurationVisualizer[0] streamFilter "\"*\""
par InVehicleNetworkShowcase.visualizer.failureProtectionConfigurationVisualizer[0] zIndex 3
par InVehicleNetworkShowcase.visualizer.streamRedundancyConfigurationVisualizer[0] typename "\"inet.visualizer.canvas.configurator.StreamRedundancyConfigurationCanvasVisualizer\""
par InVehicleNetworkShowcase.visualizer.streamRedundancyConfigurationVisualizer[0] visualizationTargetModule "\"^.^\""
par InVehicleNetworkShowcase.visualizer.streamRedundancyConfigurationVisualizer[0] visualizationSubjectModule "\"^.^\""
par InVehicleNetworkShowcase.visualizer.streamRedundancyConfigurationVisualizer[0] tags "\"\""
par InVehicleNetworkShowcase.visualizer.streamRedundancyConfigurationVisualizer[0] displayTrees false
par InVehicleNetworkShowcase.visualizer.streamRedundancyConfigurationVisualizer[0] lineColor "\"dark\""
attr enum light,dark
par InVehicleNetworkShowcase.visualizer.streamRedundancyConfigurationVisualizer[0] lineStyle "\"solid\""
par InVehicleNetworkShowcase.visualizer.streamRedundancyConfigurationVisualizer[0] lineWidth 3
par InVehicleNetworkShowcase.visualizer.streamRedundancyConfigurationVisualizer[0] lineSmooth false
par InVehicleNetworkShowcase.visualizer.streamRedundancyConfigurationVisualizer[0] lineShift 16
par InVehicleNetworkShowcase.visualizer.streamRedundancyConfigurationVisualizer[0] lineShiftMode "\"normal\""
par InVehicleNetworkShowcase.visualizer.streamRedundancyConfigurationVisualizer[0] lineContactSpacing 3
par InVehicleNetworkShowcase.visualizer.streamRedundancyConfigurationVisualizer[0] lineContactMode "\"rectangular\""
attr enum circular,rectangular
par InVehicleNetworkShowcase.visualizer.streamRedundancyConfigurationVisualizer[0] streamRedundancyConfiguratorModule "\"streamRedundancyConfigurator\""
par InVehicleNetworkShowcase.visualizer.streamRedundancyConfigurationVisualizer[0] streamFilter "\"*\""
par InVehicleNetworkShowcase.visualizer.streamRedundancyConfigurationVisualizer[0] zIndex 3
par InVehicleNetworkShowcase.visualizer typename "\"inet.visualizer.canvas.integrated.IntegratedMultiCanvasVisualizer\""
par InVehicleNetworkShowcase.visualizer numSceneVisualizers 1
par InVehicleNetworkShowcase.visualizer numPhysicalEnvironmentVisualizers 1
par InVehicleNetworkShowcase.visualizer numNetworkNodeVisualizers 1
par InVehicleNetworkShowcase.visualizer numNetworkConnectionVisualizers 1
par InVehicleNetworkShowcase.visualizer numMobilityVisualizers 1
par InVehicleNetworkShowcase.visualizer numStatisticVisualizers 1
par InVehicleNetworkShowcase.visualizer numInfoVisualizers 1
par InVehicleNetworkShowcase.visualizer numEnergyStorageVisualizers 1
par InVehicleNetworkShowcase.visualizer numMediumVisualizers 1
par InVehicleNetworkShowcase.visualizer numObstacleLossVisualizers 1
par InVehicleNetworkShowcase.visualizer numPacketDropVisualizers 1
par InVehicleNetworkShowcase.visualizer numQueueVisualizers 1
par InVehicleNetworkShowcase.visualizer numGateScheduleVisualizers 1
par InVehicleNetworkShowcase.visualizer numRadioVisualizers 1
par InVehicleNetworkShowcase.visualizer numPhysicalLinkVisualizers 1
par InVehicleNetworkShowcase.visualizer numInterfaceTableVisualizers 1
par InVehicleNetworkShowcase.visualizer numDataLinkVisualizers 1
par InVehicleNetworkShowcase.visualizer numLinkBreakVisualizers 1
par InVehicleNetworkShowcase.visualizer numIeee80211Visualizers 1
par InVehicleNetworkShowcase.visualizer numNetworkRouteVisualizers 4
par InVehicleNetworkShowcase.visualizer numRoutingTableVisualizers 1
par InVehicleNetworkShowcase.visualizer numTransportRouteVisualizers 1
par InVehicleNetworkShowcase.visualizer numTransportConnectionVisualizers 1
par InVehicleNetworkShowcase.visualizer numFailureProtectionConfigurationVisualizers 1
par InVehicleNetworkShowcase.visualizer numStreamRedundancyConfigurationVisualizers 1
par InVehicleNetworkShowcase.configurator typename "\"inet.networklayer.configurator.ipv4.Ipv4NetworkConfigurator\""
par InVehicleNetworkShowcase.configurator minLinkWeight 0.001
par InVehicleNetworkShowcase.configurator configureIsolatedNetworksSeparatly false
par InVehicleNetworkShowcase.configurator config "<config>...</config> at content:1"
par InVehicleNetworkShowcase.configurator assignAddresses true
par InVehicleNetworkShowcase.configurator assignUniqueAddresses true
par InVehicleNetworkShowcase.configurator assignDisjunctSubnetAddresses true
par InVehicleNetworkShowcase.configurator addStaticRoutes true
par InVehicleNetworkShowcase.configurator addDefaultRoutes true
par InVehicleNetworkShowcase.configurator addSubnetRoutes true
par InVehicleNetworkShowcase.configurator addDirectRoutes true
par InVehicleNetworkShowcase.configurator optimizeRoutes true
par InVehicleNetworkShowcase.configurator dumpTopology false
par InVehicleNetworkShowcase.configurator dumpLinks false
par InVehicleNetworkShowcase.configurator dumpAddresses false
par InVehicleNetworkShowcase.configurator dumpRoutes false
par InVehicleNetworkShowcase.configurator dumpConfig "\"\""
par InVehicleNetworkShowcase.macForwardingTableConfigurator typename "\"inet.linklayer.configurator.MacForwardingTableConfigurator\""
par InVehicleNetworkShowcase.S1.eth[0].phys$o.channel typename "\"ned.IdealChannel\""
par InVehicleNetworkShowcase.S1.ethg$i[0].channel typename "\"ned.IdealChannel\""
par InVehicleNetworkShowcase.S1.eth[1].phys$o.channel typename "\"ned.IdealChannel\""
par InVehicleNetworkShowcase.S1.ethg$i[1].channel typename "\"ned.IdealChannel\""
par InVehicleNetworkShowcase.S1.eth[2].phys$o.channel typename "\"ned.IdealChannel\""
par InVehicleNetworkShowcase.S1.ethg$i[2].channel typename "\"ned.IdealChannel\""
par InVehicleNetworkShowcase.S1.macTable typename "\"inet.linklayer.ethernet.common.MacForwardingTable\""
par InVehicleNetworkShowcase.S1.macTable agingTime 120s
attr unit s
par InVehicleNetworkShowcase.S1.macTable forwardingTable "[{address: \"0A-AA-00-00-00-05\", interface: \"eth1\"}, {address: \"0A-AA-00-00-00-09\", interface: \"eth2\"}, {address: \"0A-AA-00-00-00-0A\", interface: \"eth2\"}, {address: \"01-00-5E-00-00-01\", interface: \"eth0\"}, {address: \"01-00-5E-00-00-01\", interface: \"eth1\"}, {address: \"01-00-5E-00-00-01\", interface: \"eth2\"}]"
attr mutable ""
par InVehicleNetworkShowcase.S1.macTable forwardingTableFile "\"\""
par InVehicleNetworkShowcase.S1.macTable interfaceTableModule "\"InVehicleNetworkShowcase.S1.interfaceTable\""
par InVehicleNetworkShowcase.S1.macTable displayStringTextFormat "\"addr: %a\\nvlan: %v\""
par InVehicleNetworkShowcase.S1.interfaceTable typename "\"inet.networklayer.common.InterfaceTable\""
par InVehicleNetworkShowcase.S1.interfaceTable displayAddresses false
par InVehicleNetworkShowcase.S1.sc typename "\"inet.common.MessageDispatcher\""
par InVehicleNetworkShowcase.S1.sc displayStringTextFormat "\"processed %p pk (%l)\""
par InVehicleNetworkShowcase.S1.sc forwardServiceRegistration true
par InVehicleNetworkShowcase.S1.sc forwardProtocolRegistration true
[...]
attr source packetDropReasonIsIncorrectlyReceived(packetDropped)
attr title "packet drop: incorrectly received, sum(packetBytes)"
scalar InVehicleNetworkShowcase.SECC2MON.eth[0].mac packetDropInterfaceDown:count 0
attr interpolationmode none
attr recordingmode count
attr source packetDropReasonIsInterfaceDown(packetDropped)
attr title "packet drop: interface down, count"
scalar InVehicleNetworkShowcase.SECC2MON.eth[0].mac packetDropInterfaceDown:sum(packetBytes) 0
attr interpolationmode none
attr recordingmode sum(packetBytes)
attr source packetDropReasonIsInterfaceDown(packetDropped)
attr title "packet drop: interface down, sum(packetBytes)"
scalar InVehicleNetworkShowcase.SECC2MON.eth[0].mac packetDropNotAddressedToUs:count 0
attr interpolationmode none
attr recordingmode count
attr source packetDropReasonIsNotAddressedToUs(packetDropped)
attr title "packet drop: not addressed to us, count"
scalar InVehicleNetworkShowcase.SECC2MON.eth[0].mac packetDropNotAddressedToUs:sum(packetBytes) 0
attr interpolationmode none
attr recordingmode sum(packetBytes)
attr source packetDropReasonIsNotAddressedToUs(packetDropped)
attr title "packet drop: not addressed to us, sum(packetBytes)"
scalar InVehicleNetworkShowcase.SECC2MON.eth[0].mac rxPausePkUnits:count 0
attr interpolationmode none
attr recordingmode count
attr title "pause units received, count"
scalar InVehicleNetworkShowcase.SECC2MON.eth[0].mac rxPausePkUnits:sum 0
attr interpolationmode none
attr recordingmode sum
attr title "pause units received, sum"
scalar InVehicleNetworkShowcase.SECC2MON.eth[0].mac txPausePkUnits:count 0
attr interpolationmode none
attr recordingmode count
attr title "pause units sent, count"
scalar InVehicleNetworkShowcase.SECC2MON.eth[0].mac txPausePkUnits:sum 0
attr interpolationmode none
attr recordingmode sum
attr title "pause units sent, sum"
scalar InVehicleNetworkShowcase.SECC2MON.eth[0].mac rxPkOk:count 0
attr interpolationmode none
attr recordingmode count
attr source rxPkOk
attr title "packets received OK, count"
scalar InVehicleNetworkShowcase.SECC2MON.eth[0].mac rxPkOk:sum(packetBytes) 0
attr interpolationmode none
attr recordingmode sum(packetBytes)
attr source rxPkOk
attr title "packets received OK, sum(packetBytes)"
par InVehicleNetworkShowcase.SECC2MON.eth[0] typename "\"inet.linklayer.ethernet.EthernetInterface\""
par InVehicleNetworkShowcase.SECC2MON.eth[0] displayStringTextFormat "\"%a (%i)\\n%m\""
par InVehicleNetworkShowcase.SECC2MON.eth[0] recordPcap false
par InVehicleNetworkShowcase.SECC2MON.eth[0] numPcapRecorders 0
par InVehicleNetworkShowcase.SECC2MON.eth[0] interfaceTableModule "\"InVehicleNetworkShowcase.SECC2MON.interfaceTable\""
par InVehicleNetworkShowcase.SECC2MON.eth[0] protocol "\"ethernetmac\""
par InVehicleNetworkShowcase.SECC2MON.eth[0] address "\"0A-AA-00-00-00-0A\""
attr mutable ""
par InVehicleNetworkShowcase.SECC2MON.eth[0] duplexMode true
par InVehicleNetworkShowcase.SECC2MON.eth[0] csmacdSupport false
par InVehicleNetworkShowcase.SECC2MON.eth[0] bitrate 1e+08bps
attr unit bps
par InVehicleNetworkShowcase.SECC2MON.eth[0] fcsMode "\"declared\""
attr enum declared,computed
scalar InVehicleNetworkShowcase.SECC2MON.eth[0] packetDropInterfaceDown:count 0
attr interpolationmode none
attr recordingmode count
attr source packetDropReasonIsInterfaceDown(packetDropped)
attr title "packet drops: interface down, count"
scalar InVehicleNetworkShowcase.SECC2MON.eth[0] packetDropInterfaceDown:sum(packetBytes) 0
attr interpolationmode none
attr recordingmode sum(packetBytes)
attr source packetDropReasonIsInterfaceDown(packetDropped)
attr title "packet drops: interface down, sum(packetBytes)"
scalar InVehicleNetworkShowcase.SECC2MON.eth[0] packetDropNoCarrier:count 0
attr interpolationmode none
attr recordingmode count
attr source packetDropReasonIsNoCarrier(packetDropped)
attr title "packet drops: no carrier, count"
scalar InVehicleNetworkShowcase.SECC2MON.eth[0] packetDropNoCarrier:sum(packetBytes) 0
attr interpolationmode none
attr recordingmode sum(packetBytes)
attr source packetDropReasonIsNoCarrier(packetDropped)
attr title "packet drops: no carrier, sum(packetBytes)"
par InVehicleNetworkShowcase.SECC2MON.ipv4.transportIn.channel typename "\"ned.IdealChannel\""
par InVehicleNetworkShowcase.SECC2MON.ipv4.up.out[0].channel typename "\"ned.IdealChannel\""
par InVehicleNetworkShowcase.SECC2MON.ipv4.lp.out[2].channel typename "\"ned.IdealChannel\""
par InVehicleNetworkShowcase.SECC2MON.ipv4.ifIn.channel typename "\"ned.IdealChannel\""
par InVehicleNetworkShowcase.SECC2MON.ipv4.configurator typename "\"inet.networklayer.configurator.ipv4.Ipv4NodeConfigurator\""
par InVehicleNetworkShowcase.SECC2MON.ipv4.configurator interfaceTableModule "\"InVehicleNetworkShowcase.SECC2MON.interfaceTable\""
par InVehicleNetworkShowcase.SECC2MON.ipv4.configurator routingTableModule "\"InVehicleNetworkShowcase.SECC2MON.ipv4.routingTable\""
par InVehicleNetworkShowcase.SECC2MON.ipv4.configurator networkConfiguratorModule "\"configurator\""
par InVehicleNetworkShowcase.SECC2MON.ipv4.configurator configureRoutingTable true
par InVehicleNetworkShowcase.SECC2MON.ipv4.routingTable typename "\"inet.networklayer.ipv4.Ipv4RoutingTable\""
par InVehicleNetworkShowcase.SECC2MON.ipv4.routingTable interfaceTableModule "\"InVehicleNetworkShowcase.SECC2MON.interfaceTable\""
par InVehicleNetworkShowcase.SECC2MON.ipv4.routingTable routerId "\"auto\""
par InVehicleNetworkShowcase.SECC2MON.ipv4.routingTable netmaskRoutes "\"*\""
par InVehicleNetworkShowcase.SECC2MON.ipv4.routingTable forwarding false
par InVehicleNetworkShowcase.SECC2MON.ipv4.routingTable multicastForwarding false
par InVehicleNetworkShowcase.SECC2MON.ipv4.routingTable useAdminDist false
par InVehicleNetworkShowcase.SECC2MON.ipv4.routingTable routingFile "\"\""
par InVehicleNetworkShowcase.SECC2MON.ipv4.natTable typename "\"inet.networklayer.ipv4.Ipv4NatTable\""
par InVehicleNetworkShowcase.SECC2MON.ipv4.natTable networkProtocolModule "\"^.ip\""
par InVehicleNetworkShowcase.SECC2MON.ipv4.natTable config "<config/> at content:1"
par InVehicleNetworkShowcase.SECC2MON.ipv4.up typename "\"inet.common.MessageDispatcher\""
par InVehicleNetworkShowcase.SECC2MON.ipv4.up displayStringTextFormat "\"processed %p pk (%l)\""
par InVehicleNetworkShowcase.SECC2MON.ipv4.up forwardServiceRegistration true
par InVehicleNetworkShowcase.SECC2MON.ipv4.up forwardProtocolRegistration true
par InVehicleNetworkShowcase.SECC2MON.ipv4.igmp typename "\"inet.networklayer.ipv4.Igmpv2\""
par InVehicleNetworkShowcase.SECC2MON.ipv4.igmp interfaceTableModule "\"InVehicleNetworkShowcase.SECC2MON.interfaceTable\""
par InVehicleNetworkShowcase.SECC2MON.ipv4.igmp routingTableModule "\"InVehicleNetworkShowcase.SECC2MON.ipv4.routingTable\""
par InVehicleNetworkShowcase.SECC2MON.ipv4.igmp crcMode "\"declared\""
attr enum declared,computed
par InVehicleNetworkShowcase.SECC2MON.ipv4.igmp enabled true
par InVehicleNetworkShowcase.SECC2MON.ipv4.igmp robustnessVariable 2
par InVehicleNetworkShowcase.SECC2MON.ipv4.igmp queryInterval 125s
attr unit s
par InVehicleNetworkShowcase.SECC2MON.ipv4.igmp queryResponseInterval 10s
attr unit s
par InVehicleNetworkShowcase.SECC2MON.ipv4.igmp groupMembershipInterval 260s
attr unit s
par InVehicleNetworkShowcase.SECC2MON.ipv4.igmp otherQuerierPresentInterval 255s
attr unit s
par InVehicleNetworkShowcase.SECC2MON.ipv4.igmp startupQueryInterval 31.25s
attr unit s
par InVehicleNetworkShowcase.SECC2MON.ipv4.igmp startupQueryCount 2
par InVehicleNetworkShowcase.SECC2MON.ipv4.igmp lastMemberQueryInterval 1s
attr unit s
par InVehicleNetworkShowcase.SECC2MON.ipv4.igmp lastMemberQueryCount 2
par InVehicleNetworkShowcase.SECC2MON.ipv4.igmp unsolicitedReportInterval 10s
attr unit s
par InVehicleNetworkShowcase.SECC2MON.ipv4.icmp typename "\"inet.networklayer.ipv4.Icmp\""
par InVehicleNetworkShowcase.SECC2MON.ipv4.icmp interfaceTableModule "\"InVehicleNetworkShowcase.SECC2MON.interfaceTable\""
par InVehicleNetworkShowcase.SECC2MON.ipv4.icmp routingTableModule "\"InVehicleNetworkShowcase.SECC2MON.ipv4.routingTable\""
par InVehicleNetworkShowcase.SECC2MON.ipv4.icmp crcMode "\"declared\""
attr enum declared,computed
attr mutable ""
par InVehicleNetworkShowcase.SECC2MON.ipv4.icmp quoteLength 8B
attr mutable ""
attr unit B
par InVehicleNetworkShowcase.SECC2MON.ipv4.mp typename "\"inet.common.MessageDispatcher\""
par InVehicleNetworkShowcase.SECC2MON.ipv4.mp displayStringTextFormat "\"processed %p pk (%l)\""
par InVehicleNetworkShowcase.SECC2MON.ipv4.mp forwardServiceRegistration true
par InVehicleNetworkShowcase.SECC2MON.ipv4.mp forwardProtocolRegistration true
par InVehicleNetworkShowcase.SECC2MON.ipv4.ip typename "\"inet.networklayer.ipv4.Ipv4\""
par InVehicleNetworkShowcase.SECC2MON.ipv4.ip interfaceTableModule "\"InVehicleNetworkShowcase.SECC2MON.interfaceTable\""
par InVehicleNetworkShowcase.SECC2MON.ipv4.ip routingTableModule "\"InVehicleNetworkShowcase.SECC2MON.ipv4.routingTable\""
par InVehicleNetworkShowcase.SECC2MON.ipv4.ip arpModule "\"InVehicleNetworkShowcase.SECC2MON.ipv4.arp\""
par InVehicleNetworkShowcase.SECC2MON.ipv4.ip icmpModule "\"InVehicleNetworkShowcase.SECC2MON.ipv4.icmp\""
par InVehicleNetworkShowcase.SECC2MON.ipv4.ip crcMode "\"declared\""
attr enum declared,computed
par InVehicleNetworkShowcase.SECC2MON.ipv4.ip timeToLive 32
par InVehicleNetworkShowcase.SECC2MON.ipv4.ip multicastTimeToLive 32
par InVehicleNetworkShowcase.SECC2MON.ipv4.ip fragmentTimeout 60s
attr unit s
par InVehicleNetworkShowcase.SECC2MON.ipv4.ip limitedBroadcast false
par InVehicleNetworkShowcase.SECC2MON.ipv4.ip directBroadcastInterfaces "\"\""
scalar InVehicleNetworkShowcase.SECC2MON.ipv4.ip packetDropAddressResolutionFailed:count 0
attr interpolationmode none
attr recordingmode count
attr source packetDropReasonIsAddressResolutionFailed(packetDropped)
attr title "packet drop: address resolution failed, count"
scalar InVehicleNetworkShowcase.SECC2MON.ipv4.ip packetDropAddressResolutionFailed:sum(packetBytes) 0
attr interpolationmode none
attr recordingmode sum(packetBytes)
attr source packetDropReasonIsAddressResolutionFailed(packetDropped)
attr title "packet drop: address resolution failed, sum(packetBytes)"
scalar InVehicleNetworkShowcase.SECC2MON.ipv4.ip packetDropHopLimitReached:count 0
attr interpolationmode none
attr recordingmode count
attr source packetDropReasonIsHopLimitReached(packetDropped)
attr title "packet drop: hop limit reached, count"
scalar InVehicleNetworkShowcase.SECC2MON.ipv4.ip packetDropHopLimitReached:sum(packetBytes) 0
attr interpolationmode none
attr recordingmode sum(packetBytes)
attr source packetDropReasonIsHopLimitReached(packetDropped)
attr title "packet drop: hop limit reached, sum(packetBytes)"
scalar InVehicleNetworkShowcase.SECC2MON.ipv4.ip packetDropForwardingDisabled:count 0
attr interpolationmode none
attr recordingmode count
attr source packetDropReasonIsForwardingDisabled(packetDropped)
attr title "packet drop: forwarding disabled, count"
scalar InVehicleNetworkShowcase.SECC2MON.ipv4.ip packetDropForwardingDisabled:sum(packetBytes) 0
attr interpolationmode none
attr recordingmode sum(packetBytes)
attr source packetDropReasonIsForwardingDisabled(packetDropped)
attr title "packet drop: forwarding disabled, sum(packetBytes)"
scalar InVehicleNetworkShowcase.SECC2MON.ipv4.ip packetDropNoInterfaceFound:count 0
attr interpolationmode none
attr recordingmode count
attr source packetDropReasonIsNoInterfaceFound(packetDropped)
attr title "packet drop: no interface found, count"
scalar InVehicleNetworkShowcase.SECC2MON.ipv4.ip packetDropNoInterfaceFound:sum(packetBytes) 0
attr interpolationmode none
attr recordingmode sum(packetBytes)
attr source packetDropReasonIsNoInterfaceFound(packetDropped)
attr title "packet drop: no interface found, sum(packetBytes)"
scalar InVehicleNetworkShowcase.SECC2MON.ipv4.ip packetDropNoRouteFound:count 0
attr interpolationmode none
attr recordingmode count
attr source packetDropReasonIsNoRouteFound(packetDropped)
attr title "packet drop: no route found, count"
scalar InVehicleNetworkShowcase.SECC2MON.ipv4.ip packetDropNoRouteFound:sum(packetBytes) 0
attr interpolationmode none
attr recordingmode sum(packetBytes)
attr source packetDropReasonIsNoRouteFound(packetDropped)
attr title "packet drop: no route found, sum(packetBytes)"
scalar InVehicleNetworkShowcase.SECC2MON.ipv4.ip packetDropUndefined:count 0
attr interpolationmode none
attr recordingmode count
attr source packetDropReasonIsUndefined(packetDropped)
attr title "packet drop: undefined, count"
scalar InVehicleNetworkShowcase.SECC2MON.ipv4.ip packetDropUndefined:sum(packetBytes) 0
attr interpolationmode none
attr recordingmode sum(packetBytes)
attr source packetDropReasonIsUndefined(packetDropped)
attr title "packet drop: undefined, sum(packetBytes)"
par InVehicleNetworkShowcase.SECC2MON.ipv4.arp typename "\"inet.networklayer.arp.ipv4.GlobalArp\""
par InVehicleNetworkShowcase.SECC2MON.ipv4.arp interfaceTableModule "\"InVehicleNetworkShowcase.SECC2MON.interfaceTable\""
par InVehicleNetworkShowcase.SECC2MON.ipv4.arp addressType "\"ipv4\""
attr enum ipv4,ipv6,mac,moduleid,modulepath
par InVehicleNetworkShowcase.SECC2MON.ipv4.lp typename "\"inet.common.MessageDispatcher\""
par InVehicleNetworkShowcase.SECC2MON.ipv4.lp displayStringTextFormat "\"processed %p pk (%l)\""
par InVehicleNetworkShowcase.SECC2MON.ipv4.lp forwardServiceRegistration true
par InVehicleNetworkShowcase.SECC2MON.ipv4.lp forwardProtocolRegistration true
par InVehicleNetworkShowcase.SECC2MON.ipv4 typename "\"inet.networklayer.ipv4.Ipv4NetworkLayer\""
par InVehicleNetworkShowcase.SECC2MON.ipv4 forwarding false
par InVehicleNetworkShowcase.SECC2MON.ipv4 multicastForwarding false
par InVehicleNetworkShowcase.SECC2MON.ipv4 interfaceTableModule "\"InVehicleNetworkShowcase.SECC2MON.interfaceTable\""
par InVehicleNetworkShowcase.SECC2MON.ipv4 displayStringTextFormat "\"%i\""
par InVehicleNetworkShowcase.SECC2MON.nl typename "\"inet.common.MessageDispatcher\""
par InVehicleNetworkShowcase.SECC2MON.nl displayStringTextFormat "\"processed %p pk (%l)\""
par InVehicleNetworkShowcase.SECC2MON.nl forwardServiceRegistration true
par InVehicleNetworkShowcase.SECC2MON.nl forwardProtocolRegistration true
par InVehicleNetworkShowcase.SECC2MON.udp typename "\"inet.transportlayer.udp.Udp\""
par InVehicleNetworkShowcase.SECC2MON.udp interfaceTableModule "\"InVehicleNetworkShowcase.SECC2MON.interfaceTable\""
par InVehicleNetworkShowcase.SECC2MON.udp icmpModule "\"^.ipv4.icmp\""
par InVehicleNetworkShowcase.SECC2MON.udp icmpv6Module "\"^.ipv6.icmpv6\""
par InVehicleNetworkShowcase.SECC2MON.udp crcMode "\"declared\""
attr enum disabled,declared,computed
par InVehicleNetworkShowcase.SECC2MON.udp defaultMulticastLoop false
scalar InVehicleNetworkShowcase.SECC2MON.udp packetReceived:count 0
attr interpolationmode none
attr recordingmode count
attr source packetReceived
attr title "packets received, count"
scalar InVehicleNetworkShowcase.SECC2MON.udp packetReceived:sum(packetBytes) 0
attr interpolationmode none
attr recordingmode sum(packetBytes)
attr source packetReceived
attr title "packets received, sum(packetBytes)"
scalar InVehicleNetworkShowcase.SECC2MON.udp packetSent:count 0
attr interpolationmode none
attr recordingmode count
attr source packetSent
attr title "packets sent, count"
scalar InVehicleNetworkShowcase.SECC2MON.udp packetSent:sum(packetBytes) 0
attr interpolationmode none
attr recordingmode sum(packetBytes)
attr source packetSent
attr title "packets sent, sum(packetBytes)"
scalar InVehicleNetworkShowcase.SECC2MON.udp passedUpPk:count 0
attr interpolationmode none
attr recordingmode count
attr source packetSentToUpper
attr title "packets passed up, count"
scalar InVehicleNetworkShowcase.SECC2MON.udp droppedPkWrongPort:count 0
attr interpolationmode none
attr recordingmode count
attr source packetDropReasonIsNoPortFound(packetDropped)
attr title "packets dropped (wrong port), count"
scalar InVehicleNetworkShowcase.SECC2MON.udp droppedPkBadChecksum:count 0
attr interpolationmode none
attr recordingmode count
attr source packetDropReasonIsIncorrectlyReceived(packetDropped)
attr title "packets dropped (checksum error), count"
par InVehicleNetworkShowcase.SECC2MON.tcp typename "\"inet.transportlayer.tcp.Tcp\""
par InVehicleNetworkShowcase.SECC2MON.tcp crcMode "\"declared\""
attr enum declared,computed
par InVehicleNetworkShowcase.SECC2MON.tcp advertisedWindow 7504
par InVehicleNetworkShowcase.SECC2MON.tcp delayedAcksEnabled false
par InVehicleNetworkShowcase.SECC2MON.tcp nagleEnabled true
par InVehicleNetworkShowcase.SECC2MON.tcp limitedTransmitEnabled false
par InVehicleNetworkShowcase.SECC2MON.tcp increasedIWEnabled false
par InVehicleNetworkShowcase.SECC2MON.tcp sackSupport false
par InVehicleNetworkShowcase.SECC2MON.tcp windowScalingSupport false
par InVehicleNetworkShowcase.SECC2MON.tcp windowScalingFactor -1
par InVehicleNetworkShowcase.SECC2MON.tcp timestampSupport false
par InVehicleNetworkShowcase.SECC2MON.tcp mss 536
par InVehicleNetworkShowcase.SECC2MON.tcp msl 120s
attr unit s
par InVehicleNetworkShowcase.SECC2MON.tcp tcpAlgorithmClass "\"TcpReno\""
attr enum TcpVegas,TcpWestwood,TcpNewReno,TcpReno,TcpTahoe,TcpNoCongestionControl
par InVehicleNetworkShowcase.SECC2MON.tcp useDataNotification false
par InVehicleNetworkShowcase.SECC2MON.tcp dupthresh 3
par InVehicleNetworkShowcase.SECC2MON.tcp initialSsthresh 4294967295
par InVehicleNetworkShowcase.SECC2MON.tcp stopOperationExtraTime 0s
attr unit s
par InVehicleNetworkShowcase.SECC2MON.tcp stopOperationTimeout 2s
attr unit s
par InVehicleNetworkShowcase.SECC2MON.tcp ecnWillingness false
par InVehicleNetworkShowcase.SECC2MON.tcp dctcpGamma 0.0625
par InVehicleNetworkShowcase.SECC2MON.tn typename "\"inet.common.MessageDispatcher\""
par InVehicleNetworkShowcase.SECC2MON.tn displayStringTextFormat "\"processed %p pk (%l)\""
par InVehicleNetworkShowcase.SECC2MON.tn forwardServiceRegistration true
par InVehicleNetworkShowcase.SECC2MON.tn forwardProtocolRegistration true
par InVehicleNetworkShowcase.SECC2MON.at typename "\"inet.common.MessageDispatcher\""
par InVehicleNetworkShowcase.SECC2MON.at displayStringTextFormat "\"processed %p pk (%l)\""
par InVehicleNetworkShowcase.SECC2MON.at forwardServiceRegistration true
par InVehicleNetworkShowcase.SECC2MON.at forwardProtocolRegistration true
par InVehicleNetworkShowcase.SECC2MON typename "\"inet.node.inet.StandardHost\""
par InVehicleNetworkShowcase.SECC2MON hasStatus false
par InVehicleNetworkShowcase.SECC2MON osgModel "\"\""
par InVehicleNetworkShowcase.SECC2MON osgModelColor "\"\""
par InVehicleNetworkShowcase.SECC2MON canvasImage "\"\""
par InVehicleNetworkShowcase.SECC2MON canvasImageColor "\"\""
par InVehicleNetworkShowcase.SECC2MON recordPcap false
par InVehicleNetworkShowcase.SECC2MON numPcapRecorders 0
par InVehicleNetworkShowcase.SECC2MON numLoInterfaces 1
par InVehicleNetworkShowcase.SECC2MON numWlanInterfaces 0
par InVehicleNetworkShowcase.SECC2MON numEthInterfaces 0
par InVehicleNetworkShowcase.SECC2MON numPppInterfaces 0
par InVehicleNetworkShowcase.SECC2MON numTunInterfaces 0
par InVehicleNetworkShowcase.SECC2MON numVirtInterfaces 0
par InVehicleNetworkShowcase.SECC2MON fcsMode "\"declared\""
attr enum declared,computed
par InVehicleNetworkShowcase.SECC2MON hasIpv4 true
par InVehicleNetworkShowcase.SECC2MON hasIpv6 false
par InVehicleNetworkShowcase.SECC2MON hasGn false
par InVehicleNetworkShowcase.SECC2MON forwarding false
par InVehicleNetworkShowcase.SECC2MON multicastForwarding false
par InVehicleNetworkShowcase.SECC2MON hasUdp true
par InVehicleNetworkShowcase.SECC2MON hasTcp true
par InVehicleNetworkShowcase.SECC2MON hasSctp false
par InVehicleNetworkShowcase.SECC2MON numApps 0
par InVehicleNetworkShowcase typename "\"inet.showcases.tsn.combiningfeatures.invehicle.InVehicleNetworkShowcase\""
par InVehicleNetworkShowcase recordPcap false
par InVehicleNetworkShowcase numPcapRecorders 0
par InVehicleNetworkShowcase hasGlobalArp true

